data_crystal

_cell_length_a 18.50241
_cell_length_b 34.73637
_cell_length_c 31.66011
_cell_angle_alpha 90.81379
_cell_angle_beta  87.48387
_cell_angle_gamma 88.07348

_symmetry_space_group_name_	'P 1'
_symmetry_space_group_name_H-M	'P 1'

loop_
_symmetry_equiv_pos_as_xyz
  x,y,z

loop_
_atom_site_label
_atom_site_type_symbol
_atom_site_fract_x
_atom_site_fract_y
_atom_site_fract_z
_atom_site_charge
Ni	Ni	0.54109 0.54526 0.50963 1.09800
O 	O 	0.59789 0.50569 0.54296 -0.70600
Ni	Ni	0.57484 0.45708 0.51316 1.10100
O 	O 	0.57649 0.58777 0.54796 -0.37900
O 	O 	0.52877 0.56012 0.60815 -0.40400
O 	O 	0.63503 0.54685 0.47338 -0.40400
Ni	Ni	0.56551 0.50228 0.60164 1.06500
O 	O 	0.42937 0.54262 0.43244 -0.42100
O 	O 	0.46177 0.49054 0.58749 -0.41600
O 	O 	0.64276 0.42206 0.54512 -0.37600
O 	O 	0.50580 0.49590 0.48618 -0.70300
O 	O 	0.49098 0.58593 0.47251 -0.37800
O 	O 	0.56022 0.41397 0.46935 -0.37300
O 	O 	0.58261 0.45557 0.41589 -0.42100
Ni	Ni	0.50704 0.50047 0.42483 1.06900
H 	H 	0.65069 0.50958 0.54087 0.15500
H 	H 	0.45532 0.49272 0.49683 0.15500
C 	C 	0.44464 0.45640 0.57381 0.28700
O 	O 	0.58146 0.54115 0.41006 -0.40000
C 	C 	0.55450 0.59042 0.58805 0.27100
C 	C 	0.64249 0.42353 0.58702 0.26900
C 	C 	0.63787 0.54906 0.43207 0.29600
C 	C 	0.56620 0.42097 0.42860 0.26900
C 	C 	0.44396 0.57837 0.44314 0.28800
O 	O 	0.49052 0.43557 0.54930 -0.37100
O 	O 	0.59179 0.44454 0.60910 -0.40100
Ni	Ni	0.95492 0.54263 0.49478 1.09000
O 	O 	0.87774 0.51204 0.46701 -0.71000
Ni	Ni	0.88423 0.46236 0.49766 1.09800
O 	O 	0.93309 0.58785 0.45608 -0.37900
O 	O 	0.95749 0.55177 0.39556 -0.41100
O 	O 	0.87245 0.56356 0.53417 -0.39700
Ni	Ni	0.90141 0.50125 0.40741 1.06200
O 	O 	0.05157 0.53531 0.58054 -0.41100
O 	O 	0.00126 0.47675 0.41738 -0.40100
O 	O 	0.80082 0.43792 0.46932 -0.39000
O 	O 	0.96962 0.49060 0.52132 -0.72800
O 	O 	0.02693 0.57546 0.52566 -0.37100
O 	O 	0.89199 0.41589 0.53703 -0.37400
O 	O 	0.89837 0.45390 0.59563 -0.41700
Ni	Ni	0.97240 0.49613 0.58292 1.05900
H 	H 	0.82869 0.52423 0.47093 0.16400
H 	H 	0.01671 0.47911 0.51077 0.17100
C 	C 	0.00850 0.44403 0.43711 0.31100
O 	O 	0.89176 0.53611 0.59761 -0.41300
C 	C 	0.94634 0.58564 0.41490 0.26600
C 	C 	0.80048 0.43525 0.42764 0.27700
C 	C 	0.87688 0.56664 0.57520 0.28700
C 	C 	0.90533 0.41982 0.57723 0.26800
C 	C 	0.04264 0.57039 0.56559 0.28600
O 	O 	0.95290 0.42999 0.45783 -0.40100
O 	O 	0.85529 0.44820 0.40368 -0.40300
Ni	Ni	0.51473 0.50337 0.06242 1.09600
O 	O 	0.42409 0.52884 0.03820 -0.69900
Ni	Ni	0.42657 0.50838 0.97855 1.09800
O 	O 	0.50866 0.53736 0.11633 -0.37500
O 	O 	0.50476 0.59139 0.07656 -0.41400
O 	O 	0.44772 0.46533 0.09207 -0.38800
Ni	Ni	0.41613 0.58508 0.03944 1.06700
O 	O 	0.61838 0.42619 0.03440 -0.42700
O 	O 	0.48240 0.60048 0.98931 -0.39800
O 	O 	0.33791 0.53768 0.95656 -0.38600
O 	O 	0.51755 0.48306 0.00265 -0.70200
O 	O 	0.60211 0.47372 0.08569 -0.38300
O 	O 	0.43256 0.47490 0.92415 -0.37400
O 	O 	0.43951 0.42059 0.96330 -0.41300
Ni	Ni	0.52643 0.42682 0.00158 1.06600
H 	H 	0.38030 0.51914 0.05305 0.15200
H 	H 	0.56119 0.49297 0.98785 0.15500
C 	C 	0.48494 0.58388 0.95174 0.28700
O 	O 	0.46172 0.41055 0.05173 -0.40200
C 	C 	0.50939 0.57512 0.11357 0.26800
C 	C 	0.32344 0.57454 0.96587 0.28300
C 	C 	0.45702 0.42766 0.08908 0.28600
C 	C 	0.43826 0.43714 0.92634 0.27000
C 	C 	0.62057 0.43774 0.07427 0.28100
O 	O 	0.49307 0.54623 0.94812 -0.38700
O 	O 	0.32545 0.58754 0.00527 -0.41500
Ni	Ni	0.57200 0.95882 0.49886 1.10300
O 	O 	0.48619 0.99616 0.51337 -0.69500
Ni	Ni	0.52386 0.04521 0.48961 1.09700
O 	O 	0.54232 0.91891 0.54291 -0.37500
O 	O 	0.53013 0.96582 0.59381 -0.41700
O 	O 	0.51214 0.92973 0.45605 -0.37000
Ni	Ni	0.45483 0.00538 0.57224 1.06200
O 	O 	0.63695 0.93833 0.40955 -0.39900
O 	O 	0.51540 0.05075 0.59051 -0.40200
O 	O 	0.44991 0.08633 0.51530 -0.37400
O 	O 	0.60122 0.00578 0.46786 -0.71200
O 	O 	0.65870 0.92488 0.47896 -0.37800
O 	O 	0.56955 0.08544 0.45120 -0.37600
O 	O 	0.55663 0.04879 0.39115 -0.41200
Ni	Ni	0.59852 0.99461 0.40773 1.07100
H 	H 	0.44339 0.98916 0.49766 0.15500
H 	H 	0.65056 0.01291 0.47519 0.15700
C 	C 	0.58139 0.05703 0.57584 0.28800
O 	O 	0.49343 0.97889 0.41041 -0.41000
C 	C 	0.52734 0.92941 0.58246 0.26900
C 	C 	0.39592 0.07900 0.54288 0.29000
C 	C 	0.47324 0.94654 0.42733 0.28400
C 	C 	0.56789 0.08240 0.40963 0.27500
C 	C 	0.67955 0.92346 0.43843 0.27100
O 	O 	0.59635 0.05719 0.53483 -0.39100
O 	O 	0.37958 0.04329 0.55185 -0.42800
Ni	Ni	0.98974 0.50621 0.95489 1.09400
O 	O 	0.07308 0.52872 0.98601 -0.68800
Ni	Ni	0.05537 0.50772 0.04416 1.10700
O 	O 	0.99017 0.54696 0.90848 -0.39000
O 	O 	0.98491 0.59512 0.95818 -0.42800
O 	O 	0.06237 0.47284 0.91741 -0.35700
Ni	Ni	0.07910 0.58444 0.99004 1.07800
O 	O 	0.96162 0.41998 0.94269 -0.42100
O 	O 	0.02419 0.59839 0.04624 -0.37000
O 	O 	0.12420 0.53966 0.07924 -0.37200
O 	O 	0.98215 0.47906 0.01007 -0.72400
O 	O 	0.90867 0.47863 0.92722 -0.38400
O 	O 	0.03437 0.47387 0.09557 -0.36400
O 	O 	0.06188 0.41927 0.05621 -0.40900
Ni	Ni	0.00842 0.42513 0.99994 1.07800
H 	H 	0.12002 0.51790 0.97429 0.16100
H 	H 	0.93229 0.48192 0.02267 0.15500
C 	C 	0.96739 0.58053 0.06115 0.26400
O 	O 	0.10506 0.43734 0.97140 -0.41400
C 	C 	0.97892 0.58360 0.91875 0.26400
C 	C 	0.16381 0.56809 0.06433 0.28600
C 	C 	0.10874 0.44696 0.93157 0.28700
C 	C 	0.03889 0.43598 0.09225 0.27700
C 	C 	0.90509 0.44081 0.93035 0.27100
O 	O 	0.96825 0.54278 0.06295 -0.39700
O 	O 	0.16848 0.57536 0.02347 -0.40900
Ni	Ni	0.95116 0.95271 0.50862 1.09300
O 	O 	0.01026 0.99255 0.47563 -0.67000
Ni	Ni	0.98279 0.04079 0.50813 1.08700
O 	O 	0.98889 0.90955 0.46765 -0.37800
O 	O 	0.95328 0.94376 0.41064 -0.40900
O 	O 	0.04214 0.94503 0.54204 -0.39400
Ni	Ni	0.98397 0.00052 0.41763 1.04700
O 	O 	0.84604 0.95656 0.59544 -0.41400
O 	O 	0.87865 0.01329 0.43517 -0.43400
O 	O 	0.05095 0.07605 0.47614 -0.37300
O 	O 	0.91590 0.00237 0.53621 -0.71600
O 	O 	0.89719 0.91287 0.54583 -0.38200
O 	O 	0.96220 0.08189 0.55415 -0.38200
O 	O 	0.99524 0.04057 0.60560 -0.42200
Ni	Ni	0.92105 0.99750 0.59755 1.07200
H 	H 	0.06305 0.98721 0.47666 0.15600
H 	H 	0.86506 0.00772 0.52899 0.15500
C 	C 	0.85893 0.04785 0.44894 0.28500
O 	O 	0.99885 0.95585 0.61003 -0.42500
C 	C 	0.98923 0.91426 0.42636 0.23700
C 	C 	0.05394 0.07741 0.43435 0.26900
C 	C 	0.04049 0.93612 0.58203 0.33400
C 	C 	0.98345 0.07604 0.59256 0.22000
C 	C 	0.86209 0.92071 0.58287 0.28200
O 	O 	0.89800 0.06566 0.47649 -0.38000
O 	O 	0.00743 0.05806 0.41184 -0.39100
Ni	Ni	0.43610 0.06420 0.01494 1.09900
O 	O 	0.37999 0.02287 0.98544 -0.70000
Ni	Ni	0.41616 0.97480 0.01360 1.10000
O 	O 	0.42241 0.10507 0.96941 -0.37800
O 	O 	0.46448 0.06304 0.91775 -0.41100
O 	O 	0.34070 0.08568 0.04408 -0.37200
Ni	Ni	0.39321 0.01843 0.92387 1.06800
O 	O 	0.43956 0.08046 0.11171 -0.40800
O 	O 	0.48400 0.98374 0.91157 -0.38900
O 	O 	0.37190 0.93283 0.97731 -0.38100
O 	O 	0.46400 0.01699 0.04719 -0.70400
O 	O 	0.49111 0.10220 0.04964 -0.38200
O 	O 	0.45242 0.93321 0.05390 -0.37500
O 	O 	0.39672 0.96525 0.11031 -0.40800
Ni	Ni	0.42319 0.02269 0.10484 1.06100
H 	H 	0.32758 0.02648 0.99266 0.15500
H 	H 	0.51730 0.01327 0.04702 0.15100
C 	C 	0.51567 0.96092 0.93845 0.29500
O 	O 	0.32288 0.03299 0.08382 -0.43000
C 	C 	0.44803 0.09846 0.93053 0.26900
C 	C 	0.35741 0.93768 0.93718 0.28600
C 	C 	0.30384 0.06815 0.07420 0.28100
C 	C 	0.43910 0.93674 0.09502 0.26900
C 	C 	0.49131 0.09910 0.09123 0.27000
O 	O 	0.51208 0.96880 0.97914 -0.39000
O 	O 	0.33205 0.97116 0.92390 -0.40500
Ni	Ni	0.08893 0.00170 0.96354 1.09600
O 	O 	0.00703 0.98074 0.00151 -0.66700
Ni	Ni	0.02800 0.00118 0.05867 1.09900
O 	O 	0.07486 0.96279 0.91502 -0.36400
O 	O 	0.08001 0.91378 0.96203 -0.40400
O 	O 	0.01343 0.03904 0.93939 -0.39000
Ni	Ni	0.99329 0.92561 0.00428 1.05300
O 	O 	0.18818 0.07897 0.97236 -0.41800
O 	O 	0.05078 0.90443 0.05389 -0.38500
O 	O 	0.95191 0.97431 0.09663 -0.39200
O 	O 	0.10641 0.02463 0.02032 -0.70200
O 	O 	0.16700 0.02829 0.92722 -0.38800
O 	O 	0.05432 0.03457 0.10932 -0.36700
O 	O 	0.03650 0.08867 0.07065 -0.40500
Ni	Ni	0.10751 0.08051 0.01821 1.06900
H 	H 	0.96057 0.99302 0.99364 0.13200
H 	H 	0.15474 0.01523 0.02870 0.15000
C 	C 	0.09033 0.92392 0.07985 0.29700
O 	O 	0.02515 0.09368 0.97905 -0.40500
C 	C 	0.07820 0.92550 0.92275 0.26200
C 	C 	0.91229 0.94532 0.08437 0.28400
C 	C 	0.01533 0.07686 0.94229 0.32600
C 	C 	0.04776 0.07234 0.10728 0.25500
C 	C 	0.18210 0.06502 0.93360 0.26400
O 	O 	0.10496 0.96015 0.07307 -0.38400
O 	O 	0.90615 0.93672 0.04392 -0.43100
Ni	Ni	0.84858 0.77982 0.26182 1.09800
O 	O 	0.75353 0.75442 0.24978 -0.70300
Ni	Ni	0.77353 0.70010 0.26683 1.09900
O 	O 	0.81562 0.83022 0.23472 -0.38200
O 	O 	0.79369 0.79894 0.17297 -0.41400
O 	O 	0.79712 0.79867 0.31693 -0.39300
Ni	Ni	0.72175 0.75678 0.19210 1.06700
O 	O 	0.98855 0.75499 0.31840 -0.42800
O 	O 	0.79181 0.71748 0.16195 -0.40700
O 	O 	0.67868 0.67629 0.25126 -0.38500
O 	O 	0.86883 0.72525 0.27792 -0.70000
O 	O 	0.94289 0.80434 0.27859 -0.38900
O 	O 	0.80250 0.65135 0.29837 -0.38300
O 	O 	0.82420 0.68558 0.35822 -0.40700
Ni	Ni	0.90370 0.72211 0.33534 1.07200
H 	H 	0.71385 0.76538 0.26873 0.15600
H 	H 	0.90744 0.71438 0.25817 0.15400
C 	C 	0.80583 0.68213 0.17426 0.28500
O 	O 	0.85326 0.76695 0.36946 -0.40000
C 	C 	0.80242 0.83126 0.19429 0.26700
C 	C 	0.64833 0.68327 0.21502 0.28100
C 	C 	0.82750 0.79916 0.35349 0.29200
C 	C 	0.80994 0.65267 0.33946 0.26900
C 	C 	0.98037 0.79210 0.31078 0.25000
O 	O 	0.82356 0.67571 0.21342 -0.38800
O 	O 	0.64024 0.71901 0.20124 -0.41700
Ni	Ni	0.74939 0.19317 0.76332 1.09800
O 	O 	0.83801 0.21761 0.73526 -0.70100
Ni	Ni	0.82724 0.27208 0.75801 1.09600
O 	O 	0.75306 0.14569 0.72357 -0.37900
O 	O 	0.75538 0.18333 0.66529 -0.40800
O 	O 	0.81338 0.16089 0.80287 -0.36800
Ni	Ni	0.84432 0.21742 0.67310 1.06600
O 	O 	0.70611 0.19133 0.85861 -0.41100
O 	O 	0.77741 0.26203 0.65499 -0.39500
O 	O 	0.90933 0.29725 0.72401 -0.39200
O 	O 	0.74398 0.24613 0.78966 -0.70400
O 	O 	0.66108 0.17310 0.79545 -0.38100
O 	O 	0.80882 0.32215 0.79248 -0.37600
O 	O 	0.81985 0.29066 0.85466 -0.41700
Ni	Ni	0.76105 0.24087 0.84976 1.06200
H 	H 	0.88309 0.20565 0.74559 0.15100
H 	H 	0.69644 0.25909 0.78534 0.15600
C 	C 	0.76270 0.29419 0.67652 0.28900
O 	O 	0.85720 0.21151 0.83929 -0.42000
C 	C 	0.74877 0.14934 0.68246 0.26600
C 	C 	0.92495 0.28877 0.68381 0.28200
C 	C 	0.85964 0.17477 0.82925 0.27300
C 	C 	0.80491 0.32244 0.83407 0.27100
C 	C 	0.65072 0.18139 0.83620 0.26900
O 	O 	0.75207 0.29333 0.71779 -0.39000
O 	O 	0.93018 0.25253 0.67035 -0.41800
Ni	Ni	0.25159 0.75185 0.69247 1.10000
O 	O 	0.32506 0.77597 0.73015 -0.70100
Ni	Ni	0.30071 0.75165 0.78602 1.10000
O 	O 	0.25178 0.79548 0.64899 -0.37600
O 	O 	0.23514 0.84073 0.70176 -0.41300
O 	O 	0.33587 0.72309 0.65864 -0.37000
Ni	Ni	0.32686 0.83155 0.73632 1.07300
O 	O 	0.24231 0.66570 0.67361 -0.40500
O 	O 	0.26382 0.84230 0.79005 -0.39700
O 	O 	0.36067 0.78317 0.82671 -0.37400
O 	O 	0.23823 0.72201 0.74578 -0.70200
O 	O 	0.18137 0.72200 0.65786 -0.37500
O 	O 	0.27536 0.71450 0.83414 -0.37100
O 	O 	0.31874 0.66318 0.79358 -0.40900
Ni	Ni	0.27615 0.66990 0.73421 1.06500
H 	H 	0.37459 0.76694 0.72109 0.16600
H 	H 	0.18662 0.72215 0.75550 0.15700
C 	C 	0.20652 0.82322 0.80146 0.29500
O 	O 	0.37450 0.68863 0.71453 -0.42200
C 	C 	0.23334 0.83102 0.66151 0.26300
C 	C 	0.39527 0.81463 0.81598 0.28800
C 	C 	0.38576 0.70128 0.67614 0.28400
C 	C 	0.28631 0.67694 0.82878 0.26700
C 	C 	0.18403 0.68395 0.65987 0.26900
O 	O 	0.20903 0.78518 0.80162 -0.38700
O 	O 	0.40871 0.82260 0.77579 -0.40800
Ni	Ni	0.28744 0.30717 0.73345 1.09800
O 	O 	0.20021 0.27846 0.71418 -0.70300
Ni	Ni	0.21852 0.22563 0.73634 1.09900
O 	O 	0.25891 0.35469 0.69966 -0.38100
O 	O 	0.25905 0.31968 0.63820 -0.40800
O 	O 	0.22016 0.32786 0.78198 -0.39200
Ni	Ni	0.18485 0.27748 0.65367 1.07000
O 	O 	0.40857 0.29169 0.80622 -0.42200
O 	O 	0.26310 0.23801 0.63231 -0.40200
O 	O 	0.12939 0.20041 0.71460 -0.38800
O 	O 	0.30775 0.25376 0.75429 -0.70000
O 	O 	0.37191 0.33598 0.75750 -0.38400
O 	O 	0.23944 0.17787 0.77209 -0.37700
O 	O 	0.24847 0.21504 0.83152 -0.40900
Ni	Ni	0.32614 0.25486 0.81479 1.06700
H 	H 	0.15537 0.28927 0.72865 0.16100
H 	H 	0.35154 0.24301 0.73867 0.15300
C 	C 	0.27261 0.20349 0.64783 0.28400
O 	O 	0.25801 0.29752 0.84067 -0.39700
C 	C 	0.26168 0.35324 0.65811 0.26800
C 	C 	0.10967 0.20396 0.67521 0.29100
C 	C 	0.23805 0.32930 0.82155 0.29000
C 	C 	0.24657 0.18083 0.81315 0.26900
C 	C 	0.39802 0.32785 0.79469 0.28200
O 	O 	0.28177 0.19934 0.68852 -0.38500
O 	O 	0.10460 0.23837 0.65751 -0.40300
Ni	Ni	0.22110 0.72008 0.26981 1.10300
O 	O 	0.31442 0.74530 0.24958 -0.70300
Ni	Ni	0.29741 0.79856 0.27374 1.09800
O 	O 	0.22992 0.67588 0.22592 -0.37400
O 	O 	0.24571 0.71853 0.17266 -0.41500
O 	O 	0.27709 0.68444 0.30968 -0.37000
Ni	Ni	0.33554 0.74879 0.18879 1.06700
O 	O 	0.16223 0.71222 0.36287 -0.40500
O 	O 	0.28725 0.79931 0.16842 -0.39600
O 	O 	0.38043 0.82819 0.24482 -0.38300
O 	O 	0.21143 0.77095 0.29987 -0.70500
O 	O 	0.12844 0.69866 0.29503 -0.37900
O 	O 	0.27068 0.84512 0.31204 -0.37800
O 	O 	0.28083 0.81041 0.37284 -0.40300
Ni	Ni	0.21843 0.76250 0.36010 1.06800
H 	H 	0.35670 0.73317 0.26292 0.15700
H 	H 	0.16458 0.78400 0.29407 0.17000
C 	C 	0.24253 0.82322 0.19023 0.29800
O 	O 	0.31402 0.73217 0.35296 -0.41700
C 	C 	0.23730 0.68299 0.18531 0.26600
C 	C 	0.41881 0.81571 0.21067 0.28900
C 	C 	0.31554 0.69588 0.34127 0.28900
C 	C 	0.28070 0.84378 0.35293 0.27000
C 	C 	0.11327 0.70043 0.33631 0.29400
O 	O 	0.22577 0.81789 0.23045 -0.39300
O 	O 	0.42435 0.77868 0.20078 -0.42400
Ni	Ni	0.76361 0.19549 0.26709 1.09800
O 	O 	0.66742 0.22497 0.27697 -0.70300
Ni	Ni	0.69147 0.27688 0.25494 1.09700
O 	O 	0.73183 0.15035 0.30390 -0.38100
O 	O 	0.70391 0.19059 0.36016 -0.40800
O 	O 	0.72239 0.16916 0.21484 -0.36900
Ni	Ni	0.62735 0.22826 0.33529 1.07400
O 	O 	0.85105 0.18415 0.18405 -0.41600
O 	O 	0.67851 0.27304 0.36357 -0.39500
O 	O 	0.59667 0.30726 0.27164 -0.38600
O 	O 	0.78736 0.24692 0.24266 -0.69900
O 	O 	0.86119 0.16840 0.25319 -0.39100
O 	O 	0.72743 0.32295 0.22185 -0.38200
O 	O 	0.78517 0.29566 0.16257 -0.41100
Ni	Ni	0.81082 0.23954 0.18214 1.06200
H 	H 	0.62994 0.21408 0.25942 0.15200
H 	H 	0.82836 0.25813 0.25706 0.15500
C 	C 	0.70619 0.30243 0.34352 0.29400
O 	O 	0.70940 0.22171 0.17225 -0.42600
C 	C 	0.71807 0.15555 0.34478 0.26800
C 	C 	0.55768 0.30005 0.30654 0.27900
C 	C 	0.68817 0.18781 0.18507 0.27500
C 	C 	0.73837 0.32130 0.18056 0.27700
C 	C 	0.89012 0.17028 0.21461 0.28700
O 	O 	0.74016 0.29724 0.30673 -0.39600
O 	O 	0.54589 0.26422 0.31754 -0.40900
Ni	Ni	0.22583 0.30620 0.27993 1.10200
O 	O 	0.30969 0.27423 0.30202 -0.70700
Ni	Ni	0.29415 0.22284 0.27599 1.09900
O 	O 	0.22861 0.34685 0.32694 -0.38000
O 	O 	0.22054 0.30111 0.37775 -0.41600
O 	O 	0.29718 0.33920 0.24516 -0.37000
Ni	Ni	0.31376 0.26756 0.36283 1.07100
O 	O 	0.19527 0.32185 0.18624 -0.40800
O 	O 	0.26493 0.21638 0.37742 -0.39500
O 	O 	0.36623 0.18954 0.30921 -0.37800
O 	O 	0.21908 0.25711 0.24708 -0.70200
O 	O 	0.14372 0.33543 0.25248 -0.37700
O 	O 	0.27488 0.17737 0.23635 -0.37100
O 	O 	0.29605 0.21451 0.17856 -0.40900
Ni	Ni	0.24334 0.26786 0.18822 1.06400
H 	H 	0.35652 0.28375 0.29090 0.16600
H 	H 	0.16960 0.24721 0.25029 0.15500
C 	C 	0.21603 0.19948 0.35526 0.29900
O 	O 	0.33979 0.29051 0.20105 -0.41900
C 	C 	0.21511 0.33751 0.36647 0.26600
C 	C 	0.41534 0.20324 0.33458 0.28200
C 	C 	0.34210 0.32632 0.21432 0.28800
C 	C 	0.27070 0.18294 0.19539 0.26800
C 	C 	0.13978 0.33516 0.21087 0.26800
O 	O 	0.20926 0.20730 0.31517 -0.39700
O 	O 	0.40914 0.23848 0.35126 -0.41200
Ni	Ni	0.63095 0.79187 0.76674 1.10100
O 	O 	0.71076 0.75888 0.79238 -0.70600
Ni	Ni	0.70423 0.70992 0.75926 1.10000
O 	O 	0.64982 0.83624 0.80777 -0.37300
O 	O 	0.62858 0.79742 0.86443 -0.41200
O 	O 	0.71116 0.81007 0.72490 -0.39000
Ni	Ni	0.69180 0.74741 0.85149 1.06200
O 	O 	0.51311 0.77758 0.69570 -0.42600
O 	O 	0.59635 0.72217 0.84076 -0.41700
O 	O 	0.79156 0.68245 0.78318 -0.38600
O 	O 	0.61569 0.74016 0.74042 -0.70300
O 	O 	0.55455 0.82576 0.73807 -0.36600
O 	O 	0.70037 0.67002 0.71173 -0.38600
O 	O 	0.69953 0.71597 0.66113 -0.41500
Ni	Ni	0.60374 0.74568 0.67988 1.07300
H 	H 	0.75919 0.76980 0.78789 0.15100
H 	H 	0.57100 0.72965 0.75335 0.16100
C 	C 	0.59552 0.68649 0.82719 0.28800
O 	O 	0.65118 0.79645 0.66492 -0.39400
C 	C 	0.64217 0.83169 0.84906 0.26500
C 	C 	0.80045 0.68342 0.82440 0.27000
C 	C 	0.70684 0.81077 0.68333 0.28900
C 	C 	0.71347 0.68030 0.67254 0.27100
C 	C 	0.51709 0.81447 0.70559 0.28300
O 	O 	0.64000 0.67456 0.79580 -0.37000
O 	O 	0.74616 0.69479 0.85111 -0.40800
C 	C 	0.98751 0.08012 0.17893 -0.07000
C 	C 	0.03163 0.09511 0.14631 -0.01300
C 	C 	0.04601 0.13452 0.14693 -0.04500
C 	C 	0.00726 0.15944 0.17528 0.03900
C 	C 	0.95304 0.14516 0.20251 -0.12200
C 	C 	0.94827 0.10518 0.20706 0.02400
H 	H 	0.97821 0.04952 0.18001 0.04800
H 	H 	0.08152 0.14634 0.12270 0.03100
H 	H 	0.01370 0.19023 0.17283 -0.00100
H 	H 	0.90861 0.09369 0.22926 0.03100
C 	C 	0.24040 0.88018 0.14305 -0.00900
C 	C 	0.20251 0.85319 0.16726 -0.06600
C 	C 	0.12691 0.85236 0.16577 -0.00600
C 	C 	0.08998 0.87665 0.13844 -0.01000
C 	C 	0.12810 0.90261 0.11295 -0.06300
C 	C 	0.20331 0.90497 0.11621 -0.00600
H 	H 	0.29864 0.88142 0.14438 0.04500
H 	H 	0.09707 0.83177 0.18440 0.04100
H 	H 	0.03204 0.87445 0.13612 0.04700
H 	H 	0.23342 0.92488 0.09680 0.04300
C 	C 	0.17209 0.09012 0.86049 -0.01900
C 	C 	0.21004 0.08791 0.89788 -0.07700
C 	C 	0.26598 0.11342 0.90436 -0.03100
C 	C 	0.28039 0.14246 0.87546 -0.01200
C 	C 	0.23911 0.14645 0.83964 -0.07200
C 	C 	0.18641 0.11937 0.83148 -0.01100
H 	H 	0.12857 0.07077 0.85513 0.04200
H 	H 	0.29518 0.11227 0.93319 0.03800
H 	H 	0.32189 0.16279 0.88177 0.02100
H 	H 	0.15427 0.12202 0.80382 0.04300
C 	C 	0.12592 0.83133 0.86594 -0.00700
C 	C 	0.14837 0.84447 0.82597 -0.06900
C 	C 	0.13100 0.88269 0.81511 -0.00700
C 	C 	0.10363 0.90906 0.84606 -0.01300
C 	C 	0.09104 0.89700 0.88777 -0.06300
C 	C 	0.09710 0.85745 0.89670 -0.01700
H 	H 	0.13643 0.80161 0.87436 0.04300
H 	H 	0.14504 0.89278 0.78366 0.03800
H 	H 	0.09572 0.93907 0.83802 0.05000
H 	H 	0.08337 0.84724 0.92811 0.03500
C 	C 	0.88511 0.10971 0.85981 -0.04300
C 	C 	0.90595 0.14783 0.85323 -0.04100
C 	C 	0.96717 0.16115 0.87302 -0.08000
C 	C 	0.00440 0.13745 0.90089 0.08000
C 	C 	0.98109 0.10013 0.90920 -0.15300
C 	C 	0.92244 0.08603 0.88761 0.02400
H 	H 	0.83835 0.09885 0.84468 0.05300
H 	H 	0.98508 0.19009 0.86752 0.04600
H 	H 	0.05077 0.14832 0.91644 0.01500
H 	H 	0.90408 0.05722 0.89341 0.02300
C 	C 	0.87160 0.89114 0.18414 -0.01700
C 	C 	0.81825 0.86646 0.17062 -0.06900
C 	C 	0.78685 0.87289 0.13170 -0.01600
C 	C 	0.81345 0.90114 0.10476 -0.01600
C 	C 	0.87194 0.92314 0.11646 -0.07400
C 	C 	0.89814 0.91943 0.15721 -0.01600
H 	H 	0.89550 0.88700 0.21444 0.03900
H 	H 	0.74386 0.85495 0.12155 0.02400
H 	H 	0.79059 0.90479 0.07409 0.03300
H 	H 	0.94231 0.93669 0.16703 0.03700
C 	C 	0.54034 0.12039 0.15971 -0.01600
C 	C 	0.53800 0.12407 0.11560 -0.06800
C 	C 	0.58222 0.15071 0.09488 -0.01500
C 	C 	0.62946 0.17254 0.11781 -0.01100
C 	C 	0.63330 0.16788 0.16164 -0.07200
C 	C 	0.58764 0.14221 0.18255 -0.01400
H 	H 	0.50641 0.10016 0.17625 0.02600
H 	H 	0.58075 0.15420 0.06098 0.04000
H 	H 	0.66450 0.19228 0.10131 0.03100
H 	H 	0.58941 0.13882 0.21648 0.02900
C 	C 	0.23753 0.12913 0.09512 -0.01200
C 	C 	0.26203 0.09210 0.10602 -0.08800
C 	C 	0.26578 0.08309 0.14909 -0.00600
C 	C 	0.26205 0.11263 0.17962 -0.01200
C 	C 	0.25203 0.15100 0.16724 -0.06900
C 	C 	0.23354 0.15868 0.12556 -0.01400
H 	H 	0.22869 0.13585 0.06239 0.01300
H 	H 	0.27931 0.05395 0.15845 0.01900
H 	H 	0.27213 0.10593 0.21219 0.04300
H 	H 	0.22026 0.18787 0.11623 0.01200
C 	C 	0.46581 0.91137 0.16584 -0.01600
C 	C 	0.45615 0.90429 0.12272 -0.07100
C 	C 	0.45136 0.86620 0.10801 -0.01600
C 	C 	0.44731 0.83610 0.13681 -0.01100
C 	C 	0.44733 0.84399 0.18050 -0.08000
C 	C 	0.46131 0.88136 0.19462 -0.01000
H 	H 	0.47252 0.94050 0.17736 0.01800
H 	H 	0.44569 0.86017 0.07468 0.04100
H 	H 	0.43853 0.80719 0.12532 0.02000
H 	H 	0.46437 0.88760 0.22812 0.03700
C 	C 	0.56457 0.89367 0.93987 -0.01200
C 	C 	0.56576 0.93018 0.92173 -0.07000
C 	C 	0.60429 0.93508 0.88306 -0.00900
C 	C 	0.63427 0.90312 0.86054 -0.01600
C 	C 	0.62603 0.86596 0.87654 -0.06700
C 	C 	0.59475 0.86168 0.91750 -0.01600
H 	H 	0.53588 0.88963 0.96998 0.04200
H 	H 	0.60774 0.96343 0.86943 0.04300
H 	H 	0.66114 0.90715 0.82991 0.04400
H 	H 	0.59037 0.83339 0.93111 0.03500
C 	C 	0.53414 0.14669 0.83815 -0.01700
C 	C 	0.58403 0.16907 0.85887 -0.07500
C 	C 	0.57340 0.17657 0.90252 -0.01600
C 	C 	0.52091 0.15707 0.92604 -0.01800
C 	C 	0.47856 0.13012 0.90605 -0.06900
C 	C 	0.48117 0.12756 0.86170 -0.01900
H 	H 	0.53872 0.14240 0.80418 0.03900
H 	H 	0.60842 0.19579 0.91861 0.02100
H 	H 	0.51746 0.16051 0.96015 0.04100
H 	H 	0.44609 0.10825 0.84575 0.02500
C 	C 	0.38773 0.83733 0.89115 -0.00700
C 	C 	0.40237 0.84518 0.84825 -0.06400
C 	C 	0.40944 0.88357 0.83574 -0.00900
C 	C 	0.39343 0.91369 0.86460 -0.00600
C 	C 	0.37254 0.90580 0.90665 -0.06900
C 	C 	0.37225 0.86749 0.92012 -0.00700
H 	H 	0.38514 0.80786 0.90170 0.04500
H 	H 	0.42363 0.89018 0.80315 0.02900
H 	H 	0.39722 0.94316 0.85424 0.02700
H 	H 	0.35876 0.86102 0.95284 0.04400
C 	C 	0.05722 0.10258 0.64960 -0.05300
C 	C 	0.00918 0.10881 0.61708 0.01600
C 	C 	0.99089 0.14669 0.60546 -0.12200
C 	C 	0.02371 0.17778 0.62421 0.03600
C 	C 	0.07343 0.17146 0.65583 -0.09500
C 	C 	0.08904 0.13371 0.66888 0.01200
H 	H 	0.07148 0.07360 0.65919 0.05300
H 	H 	0.95247 0.15200 0.58117 0.05100
H 	H 	0.01074 0.20669 0.61393 0.02900
H 	H 	0.12697 0.12842 0.69343 0.03500
C 	C 	0.12025 0.13934 0.43831 -0.01400
C 	C 	0.09483 0.10892 0.41375 -0.05600
C 	C 	0.10797 0.10890 0.36963 -0.01600
C 	C 	0.14616 0.13876 0.35043 -0.00700
C 	C 	0.17193 0.16897 0.37513 -0.06700
C 	C 	0.15838 0.16909 0.41914 -0.00600
H 	H 	0.11018 0.14016 0.47227 0.05100
H 	H 	0.08929 0.08566 0.35019 0.03500
H 	H 	0.15670 0.13799 0.31650 0.04500
H 	H 	0.17728 0.19226 0.43860 0.03900
C 	C 	0.83126 0.89149 0.65275 -0.01200
C 	C 	0.83232 0.88895 0.60835 -0.06700
C 	C 	0.79864 0.85821 0.58886 -0.01000
C 	C 	0.76101 0.83148 0.61347 -0.01100
C 	C 	0.75628 0.83533 0.65791 -0.06400
C 	C 	0.79346 0.86491 0.67738 -0.01400
H 	H 	0.85813 0.91470 0.66821 0.02800
H 	H 	0.79926 0.85574 0.55469 0.04200
H 	H 	0.73397 0.80839 0.59791 0.04000
H 	H 	0.79118 0.86819 0.71149 0.04100
C 	C 	0.78959 0.06027 0.38425 -0.02400
C 	C 	0.80397 0.07029 0.42619 -0.08300
C 	C 	0.77527 0.10529 0.44345 -0.00500
C 	C 	0.74182 0.13217 0.41754 -0.01500
C 	C 	0.73673 0.12422 0.37409 -0.06300
C 	C 	0.75622 0.08715 0.35830 -0.02300
H 	H 	0.80819 0.03260 0.37095 0.01600
H 	H 	0.78224 0.11254 0.47639 0.03900
H 	H 	0.72283 0.15974 0.43091 0.04400
H 	H 	0.74853 0.07968 0.32551 0.03700
C 	C 	0.09071 0.86934 0.59029 -0.00300
C 	C 	0.09627 0.90913 0.59705 -0.07700
C 	C 	0.15384 0.92293 0.61953 -0.00300
C 	C 	0.20330 0.89711 0.63711 -0.01800
C 	C 	0.19486 0.85718 0.63310 -0.06300
C 	C 	0.13978 0.84340 0.60831 -0.01500
H 	H 	0.04691 0.85845 0.57243 0.04400
H 	H 	0.15937 0.95364 0.62420 0.03400
H 	H 	0.24619 0.90812 0.65562 0.02100
H 	H 	0.13260 0.81271 0.60484 0.04600
C 	C 	0.02506 0.88808 0.35470 -0.01900
C 	C 	0.01132 0.88164 0.39796 -0.03900
C 	C 	0.00817 0.84368 0.41240 -0.01800
C 	C 	0.00837 0.81305 0.38334 -0.02600
C 	C 	0.00977 0.82034 0.33980 -0.06000
C 	C 	0.02405 0.85752 0.32568 -0.01300
H 	H 	0.03173 0.91708 0.34334 0.03000
H 	H 	0.00056 0.83806 0.44583 0.05300
H 	H 	0.00072 0.78412 0.39469 0.02900
H 	H 	0.02927 0.86318 0.29213 0.04900
C 	C 	0.21703 0.63135 0.08087 -0.02400
C 	C 	0.19608 0.59482 0.09432 -0.07300
C 	C 	0.19705 0.58605 0.13749 -0.01300
C 	C 	0.21270 0.61444 0.16711 -0.01500
C 	C 	0.22814 0.65185 0.15387 -0.07100
C 	C 	0.23306 0.65964 0.11044 -0.02400
H 	H 	0.21795 0.63842 0.04765 0.03100
H 	H 	0.18339 0.55764 0.14828 0.04600
H 	H 	0.21117 0.60752 0.20038 0.04900
H 	H 	0.24743 0.68791 0.09955 0.02800
C 	C 	0.07217 0.42723 0.16700 -0.00100
C 	C 	0.03970 0.41301 0.13094 -0.07900
C 	C 	0.02126 0.37416 0.12920 0.03100
C 	C 	0.04569 0.34866 0.15962 -0.03300
C 	C 	0.08811 0.36196 0.19204 -0.05500
C 	C 	0.09602 0.40172 0.19761 -0.01200
H 	H 	0.08443 0.45743 0.16959 0.04600
H 	H 	0.99308 0.36317 0.10252 -0.01800
H 	H 	0.03713 0.31812 0.15586 0.01900
H 	H 	0.12700 0.41244 0.22328 0.04700
C 	C 	0.20832 0.39789 0.91505 -0.01500
C 	C 	0.15273 0.42246 0.90098 -0.06600
C 	C 	0.13248 0.41945 0.85883 -0.00900
C 	C 	0.16222 0.38995 0.83243 -0.00900
C 	C 	0.21274 0.36308 0.84781 -0.06700
C 	C 	0.23799 0.36826 0.88864 -0.00900
H 	H 	0.22682 0.40091 0.94688 0.04200
H 	H 	0.09105 0.43876 0.84708 0.05300
H 	H 	0.14401 0.38726 0.80051 0.04700
H 	H 	0.27988 0.34908 0.90013 0.03800
C 	C 	0.84931 0.66479 0.10021 -0.01200
C 	C 	0.83060 0.65319 0.14157 -0.06900
C 	C 	0.84478 0.61480 0.15292 -0.01200
C 	C 	0.88511 0.58984 0.12523 -0.01400
C 	C 	0.91095 0.60296 0.08581 -0.06300
C 	C 	0.88966 0.63983 0.07261 -0.01800
H 	H 	0.83602 0.69374 0.09016 0.03600
H 	H 	0.82787 0.60487 0.18398 0.04000
H 	H 	0.89962 0.56106 0.13540 0.04200
H 	H 	0.90711 0.64977 0.04163 0.03000
C 	C 	0.90025 0.67466 0.87341 -0.01900
C 	C 	0.85941 0.65976 0.84113 -0.07000
C 	C 	0.86680 0.62049 0.83017 -0.01100
C 	C 	0.90973 0.59573 0.85381 -0.01700
C 	C 	0.94585 0.61016 0.88850 -0.07300
C 	C 	0.94381 0.65006 0.89675 -0.01800
H 	H 	0.89581 0.70506 0.88162 0.01100
H 	H 	0.83594 0.60876 0.80498 0.04100
H 	H 	0.91198 0.56516 0.84639 0.04200
H 	H 	0.97356 0.66181 0.92239 0.02000
C 	C 	0.81233 0.39185 0.92511 -0.02200
C 	C 	0.85208 0.42098 0.90584 -0.06800
C 	C 	0.85708 0.42275 0.86158 -0.01000
C 	C 	0.83423 0.39202 0.83716 -0.01300
C 	C 	0.80556 0.35962 0.85705 -0.07200
C 	C 	0.78897 0.36122 0.90075 -0.01600
H 	H 	0.80553 0.39106 0.95925 0.01400
H 	H 	0.88545 0.44591 0.84629 0.03900
H 	H 	0.84415 0.39210 0.80319 0.04300
H 	H 	0.76292 0.33741 0.91623 0.01300
C 	C 	0.53612 0.11473 0.34266 -0.01700
C 	C 	0.55383 0.11772 0.38534 -0.06800
C 	C 	0.54327 0.15339 0.40652 -0.02000
C 	C 	0.50314 0.18300 0.38822 -0.04700
C 	C 	0.47388 0.17719 0.34848 -0.08800
C 	C 	0.49524 0.14417 0.32449 -0.02400
H 	H 	0.54951 0.08857 0.32455 0.03500
H 	H 	0.56176 0.15733 0.43823 0.04400
H 	H 	0.49093 0.20942 0.40608 0.02700
H 	H 	0.47742 0.14051 0.29257 0.03600
C 	C 	0.73738 0.85773 0.44254 -0.01000
C 	C 	0.73560 0.89435 0.42419 -0.06300
C 	C 	0.77887 0.90071 0.38760 -0.01000
C 	C 	0.81607 0.86979 0.36667 -0.00700
C 	C 	0.80995 0.83229 0.38206 -0.06900
C 	C 	0.77440 0.82677 0.42149 -0.00800
H 	H 	0.70595 0.85261 0.47147 0.04700
H 	H 	0.78027 0.92915 0.37402 0.02600
H 	H 	0.84582 0.87460 0.33707 0.03800
H 	H 	0.77091 0.79812 0.43432 0.04100
C 	C 	0.69603 0.09125 0.58827 -0.01600
C 	C 	0.63322 0.07404 0.60468 -0.07000
C 	C 	0.61709 0.07596 0.64852 -0.01200
C 	C 	0.65867 0.09815 0.67481 -0.01600
C 	C 	0.71708 0.11844 0.65762 -0.06800
C 	C 	0.73760 0.11337 0.61463 -0.02000
H 	H 	0.71118 0.08879 0.55488 0.03900
H 	H 	0.57077 0.06148 0.66204 0.03500
H 	H 	0.64304 0.10121 0.70811 0.04200
H 	H 	0.78399 0.12793 0.60126 0.02400
C 	C 	0.49740 0.91088 0.65696 -0.02000
C 	C 	0.50735 0.90039 0.61402 -0.07400
C 	C 	0.50027 0.86177 0.60162 -0.01600
C 	C 	0.49257 0.83346 0.63213 -0.00800
C 	C 	0.49361 0.84345 0.67524 -0.10000
C 	C 	0.48961 0.88250 0.68740 -0.01900
H 	H 	0.49865 0.94080 0.66693 0.03000
H 	H 	0.50357 0.85345 0.56847 0.04600
H 	H 	0.49170 0.80351 0.62221 0.02300
H 	H 	0.48592 0.89072 0.72059 0.03000
C 	C 	0.28543 0.13362 0.62901 -0.01400
C 	C 	0.29882 0.17191 0.61874 -0.06500
C 	C 	0.33927 0.17980 0.58137 -0.01200
C 	C 	0.36841 0.14958 0.55551 -0.00800
C 	C 	0.35728 0.11114 0.56668 -0.06900
C 	C 	0.31398 0.10345 0.60308 -0.01000
H 	H 	0.25390 0.12717 0.65751 0.03800
H 	H 	0.34981 0.20925 0.57290 0.04200
H 	H 	0.40064 0.15611 0.52730 0.04500
H 	H 	0.30420 0.07404 0.61204 0.02700
C 	C 	0.39789 0.92911 0.36692 -0.00800
C 	C 	0.41212 0.92625 0.40999 -0.07100
C 	C 	0.37172 0.90138 0.43554 -0.01000
C 	C 	0.32241 0.87708 0.41748 -0.01500
C 	C 	0.31414 0.87687 0.37354 -0.06300
C 	C 	0.34899 0.90465 0.34879 -0.01800
H 	H 	0.42741 0.94886 0.34701 0.03600
H 	H 	0.38015 0.89998 0.46914 0.03400
H 	H 	0.29347 0.85705 0.43732 0.03700
H 	H 	0.34159 0.90581 0.31508 0.04700
C 	C 	0.28876 0.64036 0.94060 -0.02200
C 	C 	0.29557 0.60034 0.93295 -0.07900
C 	C 	0.28577 0.58588 0.89203 -0.01800
C 	C 	0.27704 0.61111 0.85852 -0.01500
C 	C 	0.27878 0.65112 0.86537 -0.06900
C 	C 	0.28120 0.66565 0.90690 -0.01700
H 	H 	0.29400 0.65203 0.97218 0.02800
H 	H 	0.28780 0.55511 0.88577 0.04300
H 	H 	0.27196 0.59949 0.82690 0.02300
H 	H 	0.28087 0.69642 0.91292 0.04300
C 	C 	0.46623 0.36646 0.12918 -0.01300
C 	C 	0.43687 0.40410 0.12604 -0.06800
C 	C 	0.38381 0.41770 0.15618 -0.00900
C 	C 	0.35647 0.39301 0.18707 -0.01100
C 	C 	0.38181 0.35439 0.18813 -0.06800
C 	C 	0.43904 0.34177 0.16015 -0.01500
H 	H 	0.50888 0.35601 0.10696 0.03100
H 	H 	0.36134 0.44681 0.15458 0.04300
H 	H 	0.31304 0.40342 0.20877 0.04900
H 	H 	0.46082 0.31249 0.16144 0.03800
C 	C 	0.50124 0.63456 0.15788 -0.01800
C 	C 	0.53429 0.59822 0.14893 -0.06700
C 	C 	0.59986 0.58814 0.16726 -0.01000
C 	C 	0.63535 0.61544 0.19093 -0.01300
C 	C 	0.60551 0.65296 0.19637 -0.06800
C 	C 	0.53684 0.66190 0.18131 -0.01300
H 	H 	0.44984 0.64235 0.14462 0.00700
H 	H 	0.62563 0.56006 0.16088 0.04200
H 	H 	0.68764 0.60799 0.20323 0.03800
H 	H 	0.51202 0.69035 0.18664 0.02100
C 	C 	0.65705 0.37936 0.17077 -0.01600
C 	C 	0.71439 0.35466 0.15542 -0.06800
C 	C 	0.74643 0.36088 0.11508 -0.01800
C 	C 	0.71869 0.38979 0.08953 -0.01600
C 	C 	0.65895 0.41303 0.10401 -0.07200
C 	C 	0.63018 0.40873 0.14536 -0.01300
H 	H 	0.63190 0.37514 0.20183 0.04300
H 	H 	0.79199 0.34291 0.10315 0.02700
H 	H 	0.74255 0.39348 0.05804 0.02400
H 	H 	0.58465 0.42685 0.15707 0.04100
C 	C 	0.47583 0.64604 0.91366 -0.00800
C 	C 	0.50292 0.60784 0.91477 -0.06600
C 	C 	0.55197 0.59400 0.88249 -0.00900
C 	C 	0.57817 0.61903 0.85155 -0.01000
C 	C 	0.55518 0.65808 0.85247 -0.06800
C 	C 	0.50076 0.67078 0.88225 -0.01400
H 	H 	0.43782 0.65706 0.93822 0.03300
H 	H 	0.57253 0.56444 0.88248 0.04300
H 	H 	0.61899 0.60848 0.82827 0.04800
H 	H 	0.48041 0.70040 0.88242 0.04200
C 	C 	0.39249 0.42205 0.85522 -0.00800
C 	C 	0.43904 0.41306 0.88773 -0.07600
C 	C 	0.48106 0.37863 0.88534 -0.01400
C 	C 	0.47207 0.35194 0.85278 -0.01600
C 	C 	0.42090 0.35938 0.82224 -0.07100
C 	C 	0.38389 0.39543 0.82237 -0.01500
H 	H 	0.36016 0.44867 0.85653 0.04200
H 	H 	0.51886 0.37195 0.90960 0.00500
H 	H 	0.50293 0.32486 0.85224 0.02700
H 	H 	0.34494 0.40182 0.79865 0.04300
C 	C 	0.07611 0.38123 0.44345 -0.00700
C 	C 	0.07413 0.41938 0.42909 -0.07900
C 	C 	0.13155 0.43208 0.40304 -0.00900
C 	C 	0.18401 0.40561 0.38645 -0.01400
C 	C 	0.17861 0.36625 0.39523 -0.06900
C 	C 	0.12795 0.35469 0.42634 -0.01600
H 	H 	0.03493 0.37157 0.46587 0.05100
H 	H 	0.13352 0.46196 0.39388 0.04100
H 	H 	0.22586 0.41526 0.36444 0.03900
H 	H 	0.12544 0.32471 0.43510 0.04200
C 	C 	0.86382 0.61121 0.63680 -0.01000
C 	C 	0.84101 0.59984 0.59705 -0.07600
C 	C 	0.77984 0.61807 0.58034 -0.00900
C 	C 	0.73968 0.64588 0.60436 -0.01500
C 	C 	0.76024 0.65536 0.64514 -0.07000
C 	C 	0.82363 0.63886 0.66074 -0.01400
H 	H 	0.91117 0.59754 0.64979 0.02400
H 	H 	0.76178 0.60961 0.54957 0.04400
H 	H 	0.69118 0.65894 0.59196 0.03400
H 	H 	0.84065 0.64677 0.69192 0.03500
C 	C 	0.09675 0.63554 0.56967 -0.00900
C 	C 	0.06875 0.60322 0.59017 -0.06400
C 	C 	0.06773 0.60176 0.63446 -0.01100
C 	C 	0.09871 0.63083 0.65778 -0.01400
C 	C 	0.13210 0.66140 0.63712 -0.06700
C 	C 	0.12846 0.66448 0.59311 -0.00500
H 	H 	0.09672 0.63751 0.53556 0.04900
H 	H 	0.04460 0.57757 0.65080 0.03200
H 	H 	0.10051 0.62843 0.69181 0.01600
H 	H 	0.15389 0.68805 0.57682 0.04400
C 	C 	0.94364 0.38936 0.64406 -0.02200
C 	C 	0.91927 0.38532 0.60289 -0.07600
C 	C 	0.90928 0.34823 0.58623 -0.01700
C 	C 	0.91855 0.31588 0.61152 -0.01600
C 	C 	0.93684 0.32033 0.65385 -0.08600
C 	C 	0.95281 0.35706 0.66925 -0.01800
H 	H 	0.95449 0.41758 0.65681 0.01600
H 	H 	0.89200 0.34447 0.55424 0.04300
H 	H 	0.90690 0.28769 0.59899 0.02400
H 	H 	0.96943 0.36079 0.70140 0.03200
C 	C 	0.98853 0.65343 0.41571 -0.07600
C 	C 	0.97001 0.62057 0.39259 -0.04100
C 	C 	0.98448 0.61919 0.34864 -0.07300
C 	C 	0.02600 0.64739 0.32921 0.01700
C 	C 	0.05335 0.67731 0.35359 -0.11700
C 	C 	0.03006 0.68164 0.39626 0.01800
H 	H 	0.97436 0.65611 0.44920 0.05200
H 	H 	0.96651 0.59533 0.32983 0.04500
H 	H 	0.04012 0.64473 0.29572 0.03900
H 	H 	0.04714 0.70583 0.41490 0.02000
C 	C 	0.74370 0.40642 0.36564 -0.00700
C 	C 	0.75606 0.40563 0.40900 -0.06200
C 	C 	0.73945 0.37250 0.43206 -0.00800
C 	C 	0.72000 0.33907 0.41100 -0.00600
C 	C 	0.71608 0.33867 0.36683 -0.06700
C 	C 	0.72481 0.37296 0.34453 -0.00900
H 	H 	0.75295 0.43234 0.34784 0.02800
H 	H 	0.74603 0.37186 0.46588 0.05000
H 	H 	0.71080 0.31318 0.42883 0.04300
H 	H 	0.71827 0.37349 0.31069 0.04400
C 	C 	0.41465 0.67251 0.38668 -0.01200
C 	C 	0.34757 0.66674 0.36893 -0.06900
C 	C 	0.30974 0.63342 0.37866 -0.01000
C 	C 	0.33959 0.60557 0.40475 -0.01200
C 	C 	0.40799 0.61047 0.42119 -0.06700
C 	C 	0.44491 0.64442 0.41261 -0.01000
H 	H 	0.44397 0.69832 0.37978 0.03800
H 	H 	0.25696 0.62916 0.36614 0.05100
H 	H 	0.30994 0.57987 0.41169 0.03900
H 	H 	0.49786 0.64855 0.42492 0.04600
C 	C 	0.69163 0.39521 0.65283 -0.01100
C 	C 	0.68189 0.39235 0.60909 -0.05800
C 	C 	0.70412 0.35819 0.58721 -0.00900
C 	C 	0.73081 0.32649 0.60912 -0.00900
C 	C 	0.73675 0.32853 0.65326 -0.06200
C 	C 	0.71915 0.36353 0.67477 -0.01000
H 	H 	0.67686 0.42172 0.66997 0.03000
H 	H 	0.69873 0.35569 0.55337 0.04900
H 	H 	0.74647 0.30026 0.59169 0.04200
H 	H 	0.72609 0.36618 0.70847 0.04500
C 	C 	0.36138 0.44385 0.63562 -0.00700
C 	C 	0.38043 0.43810 0.59252 -0.07300
C 	C 	0.34610 0.40971 0.56950 -0.00800
C 	C 	0.30052 0.38419 0.59038 -0.01700
C 	C 	0.28969 0.38655 0.63459 -0.06500
C 	C 	0.31603 0.41825 0.65658 -0.01700
H 	H 	0.38564 0.46647 0.65353 0.03200
H 	H 	0.35794 0.40605 0.53583 0.03200
H 	H 	0.27709 0.36127 0.57252 0.03500
H 	H 	0.30515 0.42176 0.69033 0.04500
C 	C 	0.71692 0.56147 0.36842 -0.02300
C 	C 	0.69827 0.56902 0.41122 -0.08500
C 	C 	0.73046 0.59949 0.43221 -0.01300
C 	C 	0.77289 0.62515 0.40935 -0.01600
C 	C 	0.78350 0.62050 0.36532 -0.06600
C 	C 	0.75982 0.58696 0.34559 -0.02500
H 	H 	0.69535 0.53691 0.35236 0.02900
H 	H 	0.71900 0.60472 0.46569 0.04500
H 	H 	0.79457 0.64957 0.42558 0.04600
H 	H 	0.77134 0.58166 0.31213 0.04100
C 	C 	0.48614 0.65280 0.58396 -0.01800
C 	C 	0.53409 0.62880 0.60566 -0.06700
C 	C 	0.54745 0.63746 0.64791 -0.01900
C 	C 	0.50537 0.66600 0.66990 -0.04300
C 	C 	0.44795 0.68498 0.65011 -0.08400
C 	C 	0.44280 0.68070 0.60618 -0.01500
H 	H 	0.47736 0.64736 0.55082 0.04300
H 	H 	0.58667 0.62025 0.66452 0.03300
H 	H 	0.51336 0.67097 0.70321 0.02400
H 	H 	0.40129 0.69655 0.58990 0.04700
C 	C 	0.54913 0.39964 0.35395 -0.01900
C 	C 	0.54907 0.39102 0.39723 -0.07600
C 	C 	0.53435 0.35346 0.41016 -0.01500
C 	C 	0.52760 0.32415 0.38004 -0.01900
C 	C 	0.53757 0.33188 0.33672 -0.08000
C 	C 	0.54313 0.37022 0.32387 -0.01200
H 	H 	0.55701 0.42880 0.34345 0.02400
H 	H 	0.53120 0.34657 0.44343 0.04200
H 	H 	0.52022 0.29493 0.39051 0.02300
H 	H 	0.54741 0.37694 0.29056 0.04000
