data_crystal

_cell_length_a 26.34300
_cell_length_b 26.34300
_cell_length_c 26.34300
_cell_angle_alpha 90.00000
_cell_angle_beta  90.00000
_cell_angle_gamma 90.00000

_symmetry_space_group_name_	'P 1'
_symmetry_space_group_name_H-M	'P 1'

loop_
_symmetry_equiv_pos_as_xyz
  x,y,z

loop_
_atom_site_label
_atom_site_type_symbol
_atom_site_fract_x
_atom_site_fract_y
_atom_site_fract_z
_atom_site_charge
Cu	Cu	0.28500 0.28500 -0.00000 0.83300
Cu	Cu	0.71500 0.28500 -0.00000 0.83300
Cu	Cu	0.71500 0.71500 -0.00000 0.83300
Cu	Cu	0.28500 0.71500 -0.00000 0.83400
Cu	Cu	0.00000 0.28500 0.28500 0.83400
Cu	Cu	0.71500 0.00000 0.28500 0.83400
Cu	Cu	-0.00000 0.71500 0.28500 0.83400
Cu	Cu	0.28500 0.00000 0.28500 0.83400
Cu	Cu	0.00000 0.71500 0.71500 0.83400
Cu	Cu	0.28500 0.00000 0.71500 0.83400
Cu	Cu	0.00000 0.28500 0.71500 0.83400
Cu	Cu	0.71500 0.00000 0.71500 0.83400
Cu	Cu	0.28500 0.78500 0.50000 0.86300
Cu	Cu	0.71500 0.78500 0.50000 0.86400
Cu	Cu	0.71500 0.21500 0.50000 0.86000
Cu	Cu	0.28500 0.21500 0.50000 0.86000
Cu	Cu	0.00000 0.78500 0.78500 0.83800
Cu	Cu	0.71500 0.50000 0.78500 0.86400
Cu	Cu	0.00000 0.21500 0.78500 0.83400
Cu	Cu	0.28500 0.50000 0.78500 0.86300
Cu	Cu	0.00000 0.21500 0.21500 0.83100
Cu	Cu	0.28500 0.50000 0.21500 0.86000
Cu	Cu	0.00000 0.78500 0.21500 0.83400
Cu	Cu	0.71500 0.50000 0.21500 0.86000
Cu	Cu	0.78500 0.28500 0.50000 0.86300
Cu	Cu	0.21500 0.28500 0.50000 0.86000
Cu	Cu	0.21500 0.71500 0.50000 0.86000
Cu	Cu	0.78500 0.71500 0.50000 0.86400
Cu	Cu	0.50000 0.28500 0.78500 0.86300
Cu	Cu	0.21500 0.00000 0.78500 0.83400
Cu	Cu	0.50000 0.71500 0.78500 0.86400
Cu	Cu	0.78500 0.00000 0.78500 0.83800
Cu	Cu	0.50000 0.71500 0.21500 0.86000
Cu	Cu	0.78500 0.00000 0.21500 0.83400
Cu	Cu	0.50000 0.28500 0.21500 0.86000
Cu	Cu	0.21500 0.00000 0.21500 0.83100
Cu	Cu	0.78500 0.78500 -0.00000 0.83800
Cu	Cu	0.21500 0.78500 -0.00000 0.83400
Cu	Cu	0.21500 0.21500 -0.00000 0.83100
Cu	Cu	0.78500 0.21500 -0.00000 0.83400
Cu	Cu	0.50000 0.78500 0.28500 0.86300
Cu	Cu	0.21500 0.50000 0.28500 0.86000
Cu	Cu	0.50000 0.21500 0.28500 0.86000
Cu	Cu	0.78500 0.50000 0.28500 0.86300
Cu	Cu	0.50000 0.21500 0.71500 0.86000
Cu	Cu	0.78500 0.50000 0.71500 0.86400
Cu	Cu	0.50000 0.78500 0.71500 0.86400
Cu	Cu	0.21500 0.50000 0.71500 0.86000
H4	H	0.38000 0.22800 0.88000 -0.02700
H5	H	0.77200 0.38000 0.88000 -0.02400
H5	H	0.62000 0.77200 0.88000 -0.02400
H5	H	0.22800 0.62000 0.88000 -0.02700
H5	H	0.38000 0.77200 0.12000 -0.04100
H5	H	0.22800 0.38000 0.12000 -0.04400
H5	H	0.62000 0.22800 0.12000 -0.04400
H5	H	0.77200 0.62000 0.12000 -0.04100
H5	H	0.88000 0.38000 0.22800 -0.02700
H5	H	0.62000 0.88000 0.22800 -0.02700
H5	H	0.12000 0.62000 0.22800 -0.04400
H6	H	0.38000 0.12000 0.22800 -0.04400
H6	H	0.88000 0.62000 0.77200 -0.02400
H6	H	0.38000 0.88000 0.77200 -0.02400
H6	H	0.12000 0.38000 0.77200 -0.04100
H6	H	0.62000 0.12000 0.77200 -0.04100
H6	H	0.22800 0.88000 0.38000 -0.02700
H6	H	0.22800 0.12000 0.62000 -0.04400
H6	H	0.88000 0.22800 0.62000 -0.02700
H6	H	0.77200 0.88000 0.62000 -0.02400
H6	H	0.12000 0.77200 0.62000 -0.04100
H7	H	0.77200 0.12000 0.38000 -0.04100
H7	H	0.88000 0.77200 0.38000 -0.02400
H7	H	0.12000 0.22800 0.38000 -0.04400
H7	H	0.62000 0.77200 0.12000 -0.04100
H7	H	0.22800 0.62000 0.12000 -0.04400
H7	H	0.38000 0.22800 0.12000 -0.04400
H7	H	0.77200 0.38000 0.12000 -0.04100
H7	H	0.62000 0.22800 0.88000 -0.02700
H7	H	0.77200 0.62000 0.88000 -0.02400
H7	H	0.38000 0.77200 0.88000 -0.02400
H8	H	0.22800 0.38000 0.88000 -0.02700
H8	H	0.12000 0.62000 0.77200 -0.04100
H8	H	0.38000 0.12000 0.77200 -0.04100
H8	H	0.88000 0.38000 0.77200 -0.02400
H8	H	0.62000 0.88000 0.77200 -0.02400
H8	H	0.12000 0.38000 0.22800 -0.04400
H8	H	0.62000 0.12000 0.22800 -0.04400
H8	H	0.88000 0.62000 0.22800 -0.02700
H8	H	0.38000 0.88000 0.22800 -0.02700
H8	H	0.77200 0.12000 0.62000 -0.04100
H9	H	0.77200 0.88000 0.38000 -0.02400
H9	H	0.12000 0.77200 0.38000 -0.04100
H9	H	0.22800 0.12000 0.38000 -0.04400
H9	H	0.88000 0.22800 0.38000 -0.02700
H9	H	0.22800 0.88000 0.62000 -0.02700
H9	H	0.12000 0.22800 0.62000 -0.04400
H9	H	0.88000 0.77200 0.62000 -0.02400
H9	H	0.38000 0.72800 0.38000 -0.03200
H9	H	0.62000 0.27200 0.38000 -0.03700
H9	H	0.38000 0.27200 0.62000 -0.03700
H1	H	0.62000 0.72800 0.62000 -0.03200
H1	H	0.88000 0.88000 0.72800 -0.01400
H1	H	0.62000 0.38000 0.72800 -0.03200
H1	H	0.12000 0.12000 0.72800 -0.04800
H1	H	0.38000 0.62000 0.72800 -0.03200
H1	H	0.88000 0.12000 0.27200 -0.03600
H1	H	0.38000 0.38000 0.27200 -0.03700
H1	H	0.12000 0.88000 0.27200 -0.03600
H1	H	0.62000 0.62000 0.27200 -0.03600
H1	H	0.88000 0.72800 0.12000 -0.03100
H1	H	0.12000 0.27200 0.12000 -0.05300
H1	H	0.88000 0.27200 0.88000 -0.01900
H1	H	0.12000 0.72800 0.88000 -0.03100
H1	H	0.62000 0.27200 0.62000 -0.03600
H1	H	0.38000 0.72800 0.62000 -0.03200
H1	H	0.62000 0.72800 0.38000 -0.03200
H1	H	0.38000 0.27200 0.38000 -0.03700
H1	H	0.12000 0.12000 0.27200 -0.05300
H1	H	0.38000 0.62000 0.27200 -0.03700
H1	H	0.88000 0.88000 0.27200 -0.01900
H1	H	0.62000 0.38000 0.27200 -0.03700
H1	H	0.12000 0.88000 0.72800 -0.03100
H1	H	0.62000 0.62000 0.72800 -0.03200
H1	H	0.88000 0.12000 0.72800 -0.03100
H1	H	0.38000 0.38000 0.72800 -0.03200
H1	H	0.12000 0.27200 0.88000 -0.03600
H1	H	0.88000 0.72800 0.88000 -0.01400
H1	H	0.12000 0.72800 0.12000 -0.04800
H1	H	0.88000 0.27200 0.12000 -0.03600
H1	H	0.27200 0.38000 0.38000 -0.03700
H1	H	0.72800 0.62000 0.38000 -0.03200
H1	H	0.72800 0.38000 0.62000 -0.03200
H1	H	0.27200 0.62000 0.62000 -0.03600
H1	H	0.72800 0.88000 0.88000 -0.01400
H1	H	0.72800 0.12000 0.12000 -0.04800
H1	H	0.27200 0.88000 0.12000 -0.03600
H1	H	0.27200 0.12000 0.88000 -0.03600
H1	H	0.72800 0.62000 0.62000 -0.03200
H1	H	0.27200 0.38000 0.62000 -0.03700
H1	H	0.27200 0.62000 0.38000 -0.03700
H1	H	0.72800 0.38000 0.38000 -0.03200
H1	H	0.27200 0.12000 0.12000 -0.05300
H1	H	0.27200 0.88000 0.88000 -0.01900
H1	H	0.72800 0.12000 0.88000 -0.03100
H1	H	0.72800 0.88000 0.12000 -0.03100
C1	C	0.32200 0.17800 0.88700 -0.01300
C1	C	0.29700 0.20300 0.93100 0.01900
C1	C	0.36600 0.19900 0.86600 0.00700
C1	C	0.82200 0.32200 0.88700 -0.00800
C1	C	0.67800 0.82200 0.88700 -0.00800
C1	C	0.17800 0.67800 0.88700 -0.01300
C1	C	0.32200 0.82200 0.11300 -0.01800
C1	C	0.17800 0.32200 0.11300 -0.02300
C1	C	0.67800 0.17800 0.11300 -0.02200
C1	C	0.82200 0.67800 0.11300 -0.01700
C1	C	0.88700 0.32200 0.17800 -0.01300
C1	C	0.67800 0.88700 0.17800 -0.01300
C1	C	0.11300 0.67800 0.17800 -0.02200
C1	C	0.32200 0.11300 0.17800 -0.02300
C1	C	0.88700 0.67800 0.82200 -0.00800
C1	C	0.32200 0.88700 0.82200 -0.00800
C1	C	0.11300 0.32200 0.82200 -0.01800
C1	C	0.67800 0.11300 0.82200 -0.01700
C1	C	0.17800 0.88700 0.32200 -0.01300
C1	C	0.17800 0.11300 0.67800 -0.02200
C1	C	0.88700 0.17800 0.67800 -0.01300
C1	C	0.82200 0.88700 0.67800 -0.00800
C1	C	0.11300 0.82200 0.67800 -0.01700
C1	C	0.82200 0.11300 0.32200 -0.01800
C1	C	0.88700 0.82200 0.32200 -0.00800
C1	C	0.11300 0.17800 0.32200 -0.02300
C1	C	0.67800 0.82200 0.11300 -0.01700
C1	C	0.17800 0.67800 0.11300 -0.02200
C1	C	0.32200 0.17800 0.11300 -0.02300
C1	C	0.82200 0.32200 0.11300 -0.01800
C1	C	0.67800 0.17800 0.88700 -0.01300
C1	C	0.82200 0.67800 0.88700 -0.00800
C1	C	0.32200 0.82200 0.88700 -0.00800
C1	C	0.17800 0.32200 0.88700 -0.01300
C1	C	0.11300 0.67800 0.82200 -0.01700
C1	C	0.32200 0.11300 0.82200 -0.01800
C1	C	0.88700 0.32200 0.82200 -0.00800
C1	C	0.67800 0.88700 0.82200 -0.00800
C1	C	0.11300 0.32200 0.17800 -0.02300
C1	C	0.67800 0.11300 0.17800 -0.02200
C1	C	0.88700 0.67800 0.17800 -0.01300
C1	C	0.32200 0.88700 0.17800 -0.01300
C1	C	0.82200 0.11300 0.67800 -0.01700
C1	C	0.82200 0.88700 0.32200 -0.00800
C1	C	0.11300 0.82200 0.32200 -0.01800
C1	C	0.17800 0.11300 0.32200 -0.02300
C1	C	0.88700 0.17800 0.32200 -0.01300
C1	C	0.17800 0.88700 0.67800 -0.01300
C1	C	0.11300 0.17800 0.67800 -0.02200
C1	C	0.88700 0.82200 0.67800 -0.00800
C1	C	0.32200 0.67800 0.38700 -0.01600
C1	C	0.82200 0.82200 0.38700 -0.01100
C1	C	0.67800 0.32200 0.38700 -0.01600
C1	C	0.17800 0.17800 0.38700 -0.02100
C1	C	0.32200 0.32200 0.61300 -0.01600
C2	C	0.17800 0.82200 0.61300 -0.01500
C2	C	0.67800 0.67800 0.61300 -0.01500
C2	C	0.82200 0.17800 0.61300 -0.01500
C2	C	0.67800 0.38700 0.67800 -0.01500
C2	C	0.32200 0.61300 0.67800 -0.01600
C2	C	0.32200 0.38700 0.32200 -0.01700
C2	C	0.67800 0.61300 0.32200 -0.01600
C2	C	0.17800 0.38700 0.82200 -0.01600
C2	C	0.17800 0.61300 0.17800 -0.02100
C2	C	0.82200 0.38700 0.17800 -0.01600
C2	C	0.82200 0.61300 0.82200 -0.01000
C2	C	0.67800 0.32200 0.61300 -0.01600
C2	C	0.17800 0.17800 0.61300 -0.02100
C2	C	0.32200 0.67800 0.61300 -0.01600
C2	C	0.82200 0.82200 0.61300 -0.01000
C2	C	0.67800 0.67800 0.38700 -0.01500
C2	C	0.82200 0.17800 0.38700 -0.01600
C2	C	0.32200 0.32200 0.38700 -0.01700
C2	C	0.17800 0.82200 0.38700 -0.01600
C2	C	0.32200 0.61300 0.32200 -0.01600
C2	C	0.67800 0.38700 0.32200 -0.01600
C2	C	0.67800 0.61300 0.67800 -0.01500
C2	C	0.32200 0.38700 0.67800 -0.01600
C2	C	0.82200 0.61300 0.17800 -0.01500
C2	C	0.82200 0.38700 0.82200 -0.01100
C2	C	0.17800 0.61300 0.82200 -0.01500
C2	C	0.17800 0.38700 0.17800 -0.02100
C2	C	0.38700 0.32200 0.67800 -0.01600
C2	C	0.61300 0.67800 0.67800 -0.01500
C2	C	0.38700 0.67800 0.32200 -0.01600
C2	C	0.61300 0.32200 0.32200 -0.01600
C2	C	0.38700 0.17800 0.17800 -0.02100
C2	C	0.61300 0.82200 0.17800 -0.01500
C2	C	0.38700 0.82200 0.82200 -0.01100
C2	C	0.61300 0.17800 0.82200 -0.01500
C2	C	0.61300 0.67800 0.32200 -0.01600
C2	C	0.38700 0.32200 0.32200 -0.01700
C2	C	0.61300 0.32200 0.67800 -0.01600
C2	C	0.38700 0.67800 0.67800 -0.01500
C2	C	0.61300 0.82200 0.82200 -0.01000
C2	C	0.38700 0.17800 0.82200 -0.01600
C2	C	0.61300 0.17800 0.17800 -0.02100
C2	C	0.38700 0.82200 0.17800 -0.01600
C2	C	0.79700 0.29700 0.93100 0.02000
C2	C	0.70300 0.79700 0.93100 0.01900
C2	C	0.20300 0.70300 0.93100 0.01800
C2	C	0.29700 0.79700 0.06900 0.01700
C2	C	0.20300 0.29700 0.06900 0.01600
C2	C	0.70300 0.20300 0.06900 0.01600
C2	C	0.79700 0.70300 0.06900 0.01700
C2	C	0.93100 0.29700 0.20300 0.01900
C2	C	0.70300 0.93100 0.20300 0.01800
C2	C	0.06900 0.70300 0.20300 0.01600
C2	C	0.29700 0.06900 0.20300 0.01600
C2	C	0.93100 0.70300 0.79700 0.01900
C2	C	0.29700 0.93100 0.79700 0.02000
C2	C	0.06900 0.29700 0.79700 0.01700
C2	C	0.70300 0.06900 0.79700 0.01700
C2	C	0.20300 0.93100 0.29700 0.01900
C2	C	0.20300 0.06900 0.70300 0.01600
C2	C	0.93100 0.20300 0.70300 0.01800
C2	C	0.79700 0.93100 0.70300 0.01900
C2	C	0.06900 0.79700 0.70300 0.01700
C2	C	0.79700 0.06900 0.29700 0.01700
C2	C	0.93100 0.79700 0.29700 0.02000
C2	C	0.06900 0.20300 0.29700 0.01600
C2	C	0.70300 0.79700 0.06900 0.01700
C2	C	0.20300 0.70300 0.06900 0.01600
C2	C	0.29700 0.20300 0.06900 0.01600
C2	C	0.79700 0.29700 0.06900 0.01700
C2	C	0.70300 0.20300 0.93100 0.01800
C2	C	0.79700 0.70300 0.93100 0.01900
C2	C	0.29700 0.79700 0.93100 0.02000
C2	C	0.20300 0.29700 0.93100 0.01900
C2	C	0.06900 0.70300 0.79700 0.01700
C2	C	0.29700 0.06900 0.79700 0.01700
C2	C	0.93100 0.29700 0.79700 0.02000
C2	C	0.70300 0.93100 0.79700 0.01900
C2	C	0.06900 0.29700 0.20300 0.01600
C2	C	0.70300 0.06900 0.20300 0.01600
C2	C	0.93100 0.70300 0.20300 0.01800
C2	C	0.29700 0.93100 0.20300 0.01900
C2	C	0.79700 0.06900 0.70300 0.01700
C2	C	0.79700 0.93100 0.29700 0.02000
C2	C	0.06900 0.79700 0.29700 0.01700
C2	C	0.20300 0.06900 0.29700 0.01600
C2	C	0.93100 0.20300 0.29700 0.01900
C2	C	0.20300 0.93100 0.70300 0.01800
C2	C	0.06900 0.20300 0.70300 0.01600
C2	C	0.93100 0.79700 0.70300 0.01900
C2	C	0.29700 0.70300 0.43100 0.01800
C2	C	0.79700 0.79700 0.43100 0.01900
C2	C	0.70300 0.29700 0.43100 0.01800
C2	C	0.20300 0.20300 0.43100 0.01800
C2	C	0.29700 0.29700 0.56900 0.01900
C2	C	0.20300 0.79700 0.56900 0.01800
C2	C	0.70300 0.70300 0.56900 0.01800
C2	C	0.79700 0.20300 0.56900 0.01800
C2	C	0.70300 0.43100 0.70300 0.01800
C2	C	0.29700 0.56900 0.70300 0.01800
C3	C	0.29700 0.43100 0.29700 0.01900
C3	C	0.70300 0.56900 0.29700 0.01800
C3	C	0.20300 0.43100 0.79700 0.01800
C3	C	0.20300 0.56900 0.20300 0.01800
C3	C	0.79700 0.43100 0.20300 0.01800
C3	C	0.79700 0.56900 0.79700 0.01900
C3	C	0.70300 0.29700 0.56900 0.01800
C3	C	0.20300 0.20300 0.56900 0.01800
C3	C	0.29700 0.70300 0.56900 0.01800
C3	C	0.79700 0.79700 0.56900 0.01900
C3	C	0.70300 0.70300 0.43100 0.01800
C3	C	0.79700 0.20300 0.43100 0.01800
C3	C	0.29700 0.29700 0.43100 0.01900
C3	C	0.20300 0.79700 0.43100 0.01800
C3	C	0.29700 0.56900 0.29700 0.01900
C3	C	0.70300 0.43100 0.29700 0.01800
C3	C	0.70300 0.56900 0.70300 0.01800
C3	C	0.29700 0.43100 0.70300 0.01800
C3	C	0.79700 0.56900 0.20300 0.01800
C3	C	0.79700 0.43100 0.79700 0.01900
C3	C	0.20300 0.56900 0.79700 0.01800
C3	C	0.20300 0.43100 0.20300 0.01800
C3	C	0.43100 0.29700 0.70300 0.01800
C3	C	0.56900 0.70300 0.70300 0.01800
C3	C	0.43100 0.70300 0.29700 0.01800
C3	C	0.56900 0.29700 0.29700 0.01900
C3	C	0.43100 0.20300 0.20300 0.01800
C3	C	0.56900 0.79700 0.20300 0.01800
C3	C	0.43100 0.79700 0.79700 0.01900
C3	C	0.56900 0.20300 0.79700 0.01800
C3	C	0.56900 0.70300 0.29700 0.01800
C3	C	0.43100 0.29700 0.29700 0.01900
C3	C	0.56900 0.29700 0.70300 0.01800
C3	C	0.43100 0.70300 0.70300 0.01800
C3	C	0.56900 0.79700 0.79700 0.01900
C3	C	0.43100 0.20300 0.79700 0.01800
C3	C	0.56900 0.20300 0.20300 0.01800
C3	C	0.43100 0.79700 0.20300 0.01800
C3	C	0.80100 0.36600 0.86600 0.00900
C3	C	0.63500 0.80100 0.86600 0.00800
C3	C	0.19900 0.63500 0.86600 0.00700
C3	C	0.36600 0.80100 0.13500 0.01000
C3	C	0.19900 0.36600 0.13500 0.00900
C3	C	0.63500 0.19900 0.13500 0.00900
C3	C	0.80100 0.63500 0.13500 0.01000
C3	C	0.86600 0.36600 0.19900 0.00700
C3	C	0.63500 0.86600 0.19900 0.00700
C3	C	0.13500 0.63500 0.19900 0.00900
C3	C	0.36600 0.13500 0.19900 0.00900
C3	C	0.86600 0.63500 0.80100 0.00800
C3	C	0.36600 0.86600 0.80100 0.00900
C3	C	0.13500 0.36600 0.80100 0.01000
C3	C	0.63500 0.13500 0.80100 0.01000
C3	C	0.19900 0.86600 0.36600 0.00700
C3	C	0.19900 0.13500 0.63500 0.00900
C3	C	0.86600 0.19900 0.63500 0.00700
C3	C	0.80100 0.86600 0.63500 0.00800
C3	C	0.13500 0.80100 0.63500 0.01000
C3	C	0.80100 0.13500 0.36600 0.01000
C3	C	0.86600 0.80100 0.36600 0.00900
C3	C	0.13500 0.19900 0.36600 0.00900
C3	C	0.63500 0.80100 0.13500 0.01000
C3	C	0.19900 0.63500 0.13500 0.00900
C3	C	0.36600 0.19900 0.13500 0.00900
C3	C	0.80100 0.36600 0.13500 0.01000
C3	C	0.63500 0.19900 0.86600 0.00700
C3	C	0.80100 0.63500 0.86600 0.00800
C3	C	0.36600 0.80100 0.86600 0.00900
C3	C	0.19900 0.36600 0.86600 0.00700
C3	C	0.13500 0.63500 0.80100 0.01000
C3	C	0.36600 0.13500 0.80100 0.01000
C3	C	0.86600 0.36600 0.80100 0.00900
C3	C	0.63500 0.86600 0.80100 0.00800
C3	C	0.13500 0.36600 0.19900 0.00900
C3	C	0.63500 0.13500 0.19900 0.00900
C3	C	0.86600 0.63500 0.19900 0.00700
C3	C	0.36600 0.86600 0.19900 0.00700
C3	C	0.80100 0.13500 0.63500 0.01000
C3	C	0.80100 0.86600 0.36600 0.00900
C3	C	0.13500 0.80100 0.36600 0.01000
C3	C	0.19900 0.13500 0.36600 0.00900
C3	C	0.86600 0.19900 0.36600 0.00700
C3	C	0.19900 0.86600 0.63500 0.00700
C3	C	0.13500 0.19900 0.63500 0.00900
C3	C	0.86600 0.80100 0.63500 0.00800
C3	C	0.36600 0.69900 0.36600 0.00800
C3	C	0.63500 0.30100 0.36600 0.00900
C3	C	0.36600 0.30100 0.63500 0.00900
C3	C	0.63500 0.69900 0.63500 0.00800
C3	C	0.86600 0.86600 0.69900 0.00600
C3	C	0.63500 0.36600 0.69900 0.00800
C3	C	0.13500 0.13500 0.69900 0.00900
C3	C	0.36600 0.63500 0.69900 0.00800
C3	C	0.86600 0.13500 0.30100 0.00900
C3	C	0.36600 0.36600 0.30100 0.01000
C3	C	0.13500 0.86600 0.30100 0.00900
C3	C	0.63500 0.63500 0.30100 0.00900
C3	C	0.86600 0.69900 0.13500 0.00800
C3	C	0.13500 0.30100 0.13500 0.01000
C3	C	0.86600 0.30100 0.86600 0.00700
C4	C	0.13500 0.69900 0.86600 0.00800
C4	C	0.63500 0.30100 0.63500 0.00900
C4	C	0.36600 0.69900 0.63500 0.00800
C4	C	0.63500 0.69900 0.36600 0.00800
C4	C	0.36600 0.30100 0.36600 0.01000
C4	C	0.13500 0.13500 0.30100 0.01000
C4	C	0.36600 0.63500 0.30100 0.00900
C4	C	0.86600 0.86600 0.30100 0.00700
C4	C	0.63500 0.36600 0.30100 0.00900
C4	C	0.13500 0.86600 0.69900 0.00800
C4	C	0.63500 0.63500 0.69900 0.00800
C4	C	0.86600 0.13500 0.69900 0.00800
C4	C	0.36600 0.36600 0.69900 0.00800
C4	C	0.13500 0.30100 0.86600 0.00900
C4	C	0.86600 0.69900 0.86600 0.00600
C4	C	0.13500 0.69900 0.13500 0.00900
C4	C	0.86600 0.30100 0.13500 0.00900
C4	C	0.30100 0.36600 0.36600 0.01000
C4	C	0.69900 0.63500 0.36600 0.00800
C4	C	0.69900 0.36600 0.63500 0.00800
C4	C	0.30100 0.63500 0.63500 0.00900
C4	C	0.69900 0.86600 0.86600 0.00600
C4	C	0.69900 0.13500 0.13500 0.00900
C4	C	0.30100 0.86600 0.13500 0.00900
C4	C	0.30100 0.13500 0.86600 0.00900
C4	C	0.69900 0.63500 0.63500 0.00800
C4	C	0.30100 0.36600 0.63500 0.00900
C4	C	0.30100 0.63500 0.36600 0.00900
C4	C	0.69900 0.36600 0.36600 0.00800
C4	C	0.30100 0.13500 0.13500 0.01000
C4	C	0.30100 0.86600 0.86600 0.00700
C4	C	0.69900 0.13500 0.86600 0.00800
C4	C	0.69900 0.86600 0.13500 0.00800
O4	O	0.31700 0.24300 0.94800 -0.17800
O4	O	0.75700 0.31700 0.94800 -0.17600
O4	O	0.68300 0.75700 0.94800 -0.17600
O4	O	0.24300 0.68300 0.94800 -0.17800
O4	O	0.31700 0.75700 0.05200 -0.21700
O4	O	0.24300 0.31700 0.05200 -0.21900
O4	O	0.68300 0.24300 0.05200 -0.21900
O4	O	0.75700 0.68300 0.05200 -0.21700
O4	O	0.94800 0.31700 0.24300 -0.17800
O4	O	0.68300 0.94800 0.24300 -0.17800
O4	O	0.05200 0.68300 0.24300 -0.21900
O4	O	0.31700 0.05200 0.24300 -0.21900
O4	O	0.94800 0.68300 0.75700 -0.17600
O4	O	0.31700 0.94800 0.75700 -0.17600
O4	O	0.05200 0.31700 0.75700 -0.21700
O4	O	0.68300 0.05200 0.75700 -0.21700
O4	O	0.24300 0.94800 0.31700 -0.17800
O4	O	0.24300 0.05200 0.68300 -0.21900
O4	O	0.94800 0.24300 0.68300 -0.17800
O4	O	0.75700 0.94800 0.68300 -0.17600
O4	O	0.05200 0.75700 0.68300 -0.21700
O4	O	0.75700 0.05200 0.31700 -0.21700
O4	O	0.94800 0.75700 0.31700 -0.17600
O4	O	0.05200 0.24300 0.31700 -0.21900
O4	O	0.68300 0.75700 0.05200 -0.21700
O4	O	0.24300 0.68300 0.05200 -0.21900
O4	O	0.31700 0.24300 0.05200 -0.21900
O4	O	0.75700 0.31700 0.05200 -0.21700
O4	O	0.68300 0.24300 0.94800 -0.17800
O4	O	0.75700 0.68300 0.94800 -0.17600
O4	O	0.31700 0.75700 0.94800 -0.17600
O4	O	0.24300 0.31700 0.94800 -0.17800
O4	O	0.05200 0.68300 0.75700 -0.21700
O4	O	0.31700 0.05200 0.75700 -0.21700
O4	O	0.94800 0.31700 0.75700 -0.17600
O4	O	0.68300 0.94800 0.75700 -0.17600
O4	O	0.05200 0.31700 0.24300 -0.21900
O4	O	0.68300 0.05200 0.24300 -0.21900
O4	O	0.94800 0.68300 0.24300 -0.17800
O4	O	0.31700 0.94800 0.24300 -0.17800
O4	O	0.75700 0.05200 0.68300 -0.21700
O4	O	0.75700 0.94800 0.31700 -0.17600
O4	O	0.05200 0.75700 0.31700 -0.21700
O4	O	0.24300 0.05200 0.31700 -0.21900
O4	O	0.94800 0.24300 0.31700 -0.17800
O4	O	0.24300 0.94800 0.68300 -0.17800
O4	O	0.05200 0.24300 0.68300 -0.21900
O4	O	0.94800 0.75700 0.68300 -0.17600
O4	O	0.31700 0.74300 0.44800 -0.20200
O4	O	0.75700 0.81700 0.44800 -0.19800
O4	O	0.68300 0.25700 0.44800 -0.20500
O4	O	0.24300 0.18300 0.44800 -0.20900
O4	O	0.31700 0.25700 0.55200 -0.20600
O4	O	0.24300 0.81700 0.55200 -0.20000
O4	O	0.68300 0.74300 0.55200 -0.20200
O4	O	0.75700 0.18300 0.55200 -0.20700
O4	O	0.94800 0.81700 0.74300 -0.17100
O4	O	0.68300 0.44800 0.74300 -0.20200
O4	O	0.05200 0.18300 0.74300 -0.22000
O4	O	0.31700 0.55200 0.74300 -0.20200
O4	O	0.94800 0.18300 0.25700 -0.18300
O4	O	0.31700 0.44800 0.25700 -0.20600
O4	O	0.05200 0.81700 0.25700 -0.21500
O4	O	0.68300 0.55200 0.25700 -0.20500
O4	O	0.24300 0.44800 0.81700 -0.20000
O4	O	0.24300 0.55200 0.18300 -0.20900
O4	O	0.94800 0.74300 0.18300 -0.17900
O5	O	0.75700 0.44800 0.18300 -0.20700
O5	O	0.05200 0.25700 0.18300 -0.22300
O5	O	0.75700 0.55200 0.81700 -0.19800
O5	O	0.94800 0.25700 0.81700 -0.17500
O5	O	0.05200 0.74300 0.81700 -0.21200
O5	O	0.68300 0.25700 0.55200 -0.20500
O5	O	0.24300 0.18300 0.55200 -0.20900
O5	O	0.31700 0.74300 0.55200 -0.20200
O5	O	0.75700 0.81700 0.55200 -0.19800
O5	O	0.68300 0.74300 0.44800 -0.20200
O5	O	0.75700 0.18300 0.44800 -0.20700
O5	O	0.31700 0.25700 0.44800 -0.20600
O5	O	0.24300 0.81700 0.44800 -0.20000
O5	O	0.05200 0.18300 0.25700 -0.22300
O5	O	0.31700 0.55200 0.25700 -0.20600
O5	O	0.94800 0.81700 0.25700 -0.17500
O5	O	0.68300 0.44800 0.25700 -0.20500
O5	O	0.05200 0.81700 0.74300 -0.21200
O5	O	0.68300 0.55200 0.74300 -0.20200
O5	O	0.94800 0.18300 0.74300 -0.17900
O5	O	0.31700 0.44800 0.74300 -0.20200
O5	O	0.75700 0.55200 0.18300 -0.20700
O5	O	0.75700 0.44800 0.81700 -0.19800
O5	O	0.05200 0.25700 0.81700 -0.21500
O5	O	0.24300 0.55200 0.81700 -0.20000
O5	O	0.94800 0.74300 0.81700 -0.17100
O5	O	0.24300 0.44800 0.18300 -0.20900
O5	O	0.05200 0.74300 0.18300 -0.22000
O5	O	0.94800 0.25700 0.18300 -0.18300
O5	O	0.81700 0.24300 0.44800 -0.20000
O5	O	0.25700 0.31700 0.44800 -0.20600
O5	O	0.18300 0.75700 0.44800 -0.20700
O5	O	0.74300 0.68300 0.44800 -0.20200
O5	O	0.81700 0.75700 0.55200 -0.19800
O5	O	0.74300 0.31700 0.55200 -0.20200
O5	O	0.18300 0.24300 0.55200 -0.20900
O5	O	0.25700 0.68300 0.55200 -0.20500
O5	O	0.44800 0.31700 0.74300 -0.20200
O5	O	0.18300 0.94800 0.74300 -0.17900
O5	O	0.55200 0.68300 0.74300 -0.20200
O5	O	0.81700 0.05200 0.74300 -0.21200
O5	O	0.44800 0.68300 0.25700 -0.20500
O5	O	0.81700 0.94800 0.25700 -0.17500
O5	O	0.55200 0.31700 0.25700 -0.20600
O5	O	0.18300 0.05200 0.25700 -0.22300
O5	O	0.74300 0.94800 0.81700 -0.17100
O5	O	0.74300 0.05200 0.18300 -0.22000
O5	O	0.44800 0.24300 0.18300 -0.20900
O5	O	0.25700 0.94800 0.18300 -0.18300
O5	O	0.55200 0.75700 0.18300 -0.20700
O5	O	0.25700 0.05200 0.81700 -0.21500
O5	O	0.44800 0.75700 0.81700 -0.19800
O5	O	0.55200 0.24300 0.81700 -0.20000
O5	O	0.18300 0.75700 0.55200 -0.20700
O5	O	0.74300 0.68300 0.55200 -0.20200
O5	O	0.81700 0.24300 0.55200 -0.20000
O5	O	0.25700 0.31700 0.55200 -0.20600
O5	O	0.18300 0.24300 0.44800 -0.20900
O5	O	0.25700 0.68300 0.44800 -0.20500
O5	O	0.81700 0.75700 0.44800 -0.19800
O5	O	0.74300 0.31700 0.44800 -0.20200
O5	O	0.55200 0.68300 0.25700 -0.20500
O5	O	0.81700 0.05200 0.25700 -0.21500
O5	O	0.44800 0.31700 0.25700 -0.20600
O5	O	0.18300 0.94800 0.25700 -0.18300
O5	O	0.55200 0.31700 0.74300 -0.20200
O5	O	0.18300 0.05200 0.74300 -0.22000
O5	O	0.44800 0.68300 0.74300 -0.20200
O5	O	0.81700 0.94800 0.74300 -0.17100
O5	O	0.25700 0.05200 0.18300 -0.22300
O5	O	0.25700 0.94800 0.81700 -0.17500
O5	O	0.55200 0.75700 0.81700 -0.19800
O5	O	0.74300 0.05200 0.81700 -0.21200
O5	O	0.44800 0.24300 0.81700 -0.20000
O5	O	0.74300 0.94800 0.18300 -0.17900
O5	O	0.55200 0.24300 0.18300 -0.20900
O5	O	0.44800 0.75700 0.18300 -0.20700
O5	O	0.81700 0.74300 0.94800 -0.17100
O5	O	0.25700 0.81700 0.94800 -0.17500
O5	O	0.18300 0.25700 0.94800 -0.18300
O5	O	0.74300 0.18300 0.94800 -0.17900
O5	O	0.81700 0.25700 0.05200 -0.21500
O5	O	0.74300 0.81700 0.05200 -0.21200
O5	O	0.18300 0.74300 0.05200 -0.22000
O5	O	0.25700 0.18300 0.05200 -0.22300
O5	O	0.44800 0.81700 0.24300 -0.20000
O5	O	0.18300 0.44800 0.24300 -0.20900
O5	O	0.55200 0.18300 0.24300 -0.20900
O5	O	0.81700 0.55200 0.24300 -0.20000
O5	O	0.44800 0.18300 0.75700 -0.20700
O5	O	0.81700 0.44800 0.75700 -0.19800
O5	O	0.55200 0.81700 0.75700 -0.19800
O5	O	0.18300 0.55200 0.75700 -0.20700
O5	O	0.74300 0.44800 0.31700 -0.20200
O5	O	0.74300 0.55200 0.68300 -0.20200
O5	O	0.44800 0.74300 0.68300 -0.20200
O5	O	0.25700 0.44800 0.68300 -0.20500
O5	O	0.55200 0.25700 0.68300 -0.20500
O5	O	0.25700 0.55200 0.31700 -0.20600
O5	O	0.44800 0.25700 0.31700 -0.20600
O6	O	0.55200 0.74300 0.31700 -0.20200
O6	O	0.18300 0.25700 0.05200 -0.22300
O6	O	0.74300 0.18300 0.05200 -0.22000
O6	O	0.81700 0.74300 0.05200 -0.21200
O6	O	0.25700 0.81700 0.05200 -0.21500
O6	O	0.18300 0.74300 0.94800 -0.17900
O6	O	0.25700 0.18300 0.94800 -0.18300
O6	O	0.81700 0.25700 0.94800 -0.17500
O6	O	0.74300 0.81700 0.94800 -0.17100
O6	O	0.55200 0.18300 0.75700 -0.20700
O6	O	0.81700 0.55200 0.75700 -0.19800
O6	O	0.44800 0.81700 0.75700 -0.19800
O6	O	0.18300 0.44800 0.75700 -0.20700
O6	O	0.55200 0.81700 0.24300 -0.20000
O6	O	0.18300 0.55200 0.24300 -0.20900
O6	O	0.44800 0.18300 0.24300 -0.20900
O6	O	0.81700 0.44800 0.24300 -0.20000
O6	O	0.25700 0.55200 0.68300 -0.20500
O6	O	0.25700 0.44800 0.31700 -0.20600
O6	O	0.55200 0.25700 0.31700 -0.20600
O6	O	0.74300 0.55200 0.31700 -0.20200
O6	O	0.44800 0.74300 0.31700 -0.20200
O6	O	0.74300 0.44800 0.68300 -0.20200
O6	O	0.55200 0.74300 0.68300 -0.20200
O6	O	0.44800 0.25700 0.68300 -0.20500
