# generated using pymatgen
data_Eu3H35C42NO19
_symmetry_space_group_name_H-M   'P 1'
_cell_length_a   21.26220000
_cell_length_b   34.58500000
_cell_length_c   25.87590000
_cell_angle_alpha   90.00000000
_cell_angle_beta   92.43800000
_cell_angle_gamma   90.00000000
_symmetry_Int_Tables_number   1
_chemical_formula_structural   Eu3H35C42NO19
_chemical_formula_sum   'Eu24 H280 C336 N8 O152'
_cell_volume   19010.70216447
_cell_formula_units_Z   8
loop_
 _symmetry_equiv_pos_site_id
 _symmetry_equiv_pos_as_xyz
  1  'x, y, z'
loop_
 _atom_site_type_symbol
 _atom_site_label
 _atom_site_symmetry_multiplicity
 _atom_site_fract_x
 _atom_site_fract_y
 _atom_site_fract_z
 _atom_site_occupancy
  C  C0  1  0.85770000  0.52350000  0.19630000  1
  C  C1  1  0.14230000  0.52350000  0.30370000  1
  C  C2  1  0.35770000  0.02350000  0.19630000  1
  C  C3  1  0.64230000  0.02350000  0.30370000  1
  C  C4  1  0.14230000  0.47650000  0.80370000  1
  C  C5  1  0.85770000  0.47650000  0.69630000  1
  C  C6  1  0.64230000  0.97650000  0.80370000  1
  C  C7  1  0.35770000  0.97650000  0.69630000  1
  C  C8  1  0.88980000  0.51680000  0.24290000  1
  C  C9  1  0.11020000  0.51680000  0.25710000  1
  C  C10  1  0.38980000  0.01680000  0.24290000  1
  C  C11  1  0.61020000  0.01680000  0.25710000  1
  C  C12  1  0.11020000  0.48320000  0.75710000  1
  C  C13  1  0.88980000  0.48320000  0.74290000  1
  C  C14  1  0.61020000  0.98320000  0.75710000  1
  C  C15  1  0.38980000  0.98320000  0.74290000  1
  H  H16  1  0.92539000  0.50020000  0.24502500  1
  H  H17  1  0.07461000  0.50020000  0.25497500  1
  H  H18  1  0.42539000  0.00020000  0.24502500  1
  H  H19  1  0.57461000  0.00020000  0.25497500  1
  H  H20  1  0.07461000  0.49980000  0.75497500  1
  H  H21  1  0.92539000  0.49980000  0.74502500  1
  H  H22  1  0.57461000  0.99980000  0.75497500  1
  H  H23  1  0.42539000  0.99980000  0.74502500  1
  C  C24  1  0.86870000  0.53470000  0.28580000  1
  C  C25  1  0.13130000  0.53470000  0.21420000  1
  C  C26  1  0.36870000  0.03470000  0.28580000  1
  C  C27  1  0.63130000  0.03470000  0.21420000  1
  C  C28  1  0.13130000  0.46530000  0.71420000  1
  C  C29  1  0.86870000  0.46530000  0.78580000  1
  C  C30  1  0.63130000  0.96530000  0.71420000  1
  C  C31  1  0.36870000  0.96530000  0.78580000  1
  C  C32  1  0.81330000  0.55640000  0.28450000  1
  C  C33  1  0.18670000  0.55640000  0.21550000  1
  C  C34  1  0.31330000  0.05640000  0.28450000  1
  C  C35  1  0.68670000  0.05640000  0.21550000  1
  C  C36  1  0.18670000  0.44360000  0.71550000  1
  C  C37  1  0.81330000  0.44360000  0.78450000  1
  C  C38  1  0.68670000  0.94360000  0.71550000  1
  C  C39  1  0.31330000  0.94360000  0.78450000  1
  H  H40  1  0.79828100  0.56719900  0.31535600  1
  H  H41  1  0.20171900  0.56719900  0.18464400  1
  H  H42  1  0.29828100  0.06719900  0.31535600  1
  H  H43  1  0.70171900  0.06719900  0.18464400  1
  H  H44  1  0.20171900  0.43280100  0.68464400  1
  H  H45  1  0.79828100  0.43280100  0.81535600  1
  H  H46  1  0.70171900  0.93280100  0.68464400  1
  H  H47  1  0.29828100  0.93280100  0.81535600  1
  C  C48  1  0.78150000  0.56180000  0.23940000  1
  C  C49  1  0.21850000  0.56180000  0.26060000  1
  C  C50  1  0.28150000  0.06180000  0.23940000  1
  C  C51  1  0.71850000  0.06180000  0.26060000  1
  C  C52  1  0.21850000  0.43820000  0.76060000  1
  C  C53  1  0.78150000  0.43820000  0.73940000  1
  C  C54  1  0.71850000  0.93820000  0.76060000  1
  C  C55  1  0.28150000  0.93820000  0.73940000  1
  C  C56  1  0.80180000  0.54780000  0.19290000  1
  C  C57  1  0.19820000  0.54780000  0.30710000  1
  C  C58  1  0.30180000  0.04780000  0.19290000  1
  C  C59  1  0.69820000  0.04780000  0.30710000  1
  C  C60  1  0.19820000  0.45220000  0.80710000  1
  C  C61  1  0.80180000  0.45220000  0.69290000  1
  C  C62  1  0.69820000  0.95220000  0.80710000  1
  C  C63  1  0.30180000  0.95220000  0.69290000  1
  H  H64  1  0.78068000  0.55366900  0.16078200  1
  H  H65  1  0.21932000  0.55366900  0.33921800  1
  H  H66  1  0.28068000  0.05366900  0.16078200  1
  H  H67  1  0.71932000  0.05366900  0.33921800  1
  H  H68  1  0.21932000  0.44633100  0.83921800  1
  H  H69  1  0.78068000  0.44633100  0.66078200  1
  H  H70  1  0.71932000  0.94633100  0.83921800  1
  H  H71  1  0.28068000  0.94633100  0.66078200  1
  C  C72  1  0.88120000  0.50930000  0.14450000  1
  C  C73  1  0.11880000  0.50930000  0.35550000  1
  C  C74  1  0.38120000  0.00930000  0.14450000  1
  C  C75  1  0.61880000  0.00930000  0.35550000  1
  C  C76  1  0.11880000  0.49070000  0.85550000  1
  C  C77  1  0.88120000  0.49070000  0.64450000  1
  C  C78  1  0.61880000  0.99070000  0.85550000  1
  C  C79  1  0.38120000  0.99070000  0.64450000  1
  C  C80  1  0.90190000  0.53040000  0.33630000  1
  C  C81  1  0.09810000  0.53040000  0.16370000  1
  C  C82  1  0.40190000  0.03040000  0.33630000  1
  C  C83  1  0.59810000  0.03040000  0.16370000  1
  C  C84  1  0.09810000  0.46960000  0.66370000  1
  C  C85  1  0.90190000  0.46960000  0.83630000  1
  C  C86  1  0.59810000  0.96960000  0.66370000  1
  C  C87  1  0.40190000  0.96960000  0.83630000  1
  C  C88  1  0.71830000  0.62170000  0.25450000  1
  C  C89  1  0.28170000  0.62170000  0.24550000  1
  C  C90  1  0.21830000  0.12170000  0.25450000  1
  C  C91  1  0.78170000  0.12170000  0.24550000  1
  C  C92  1  0.28170000  0.37830000  0.74550000  1
  C  C93  1  0.71830000  0.37830000  0.75450000  1
  C  C94  1  0.78170000  0.87830000  0.74550000  1
  C  C95  1  0.21830000  0.87830000  0.75450000  1
  C  C96  1  0.76310000  0.64570000  0.28160000  1
  C  C97  1  0.23690000  0.64570000  0.21840000  1
  C  C98  1  0.26310000  0.14570000  0.28160000  1
  C  C99  1  0.73690000  0.14570000  0.21840000  1
  C  C100  1  0.23690000  0.35430000  0.71840000  1
  C  C101  1  0.76310000  0.35430000  0.78160000  1
  C  C102  1  0.73690000  0.85430000  0.71840000  1
  C  C103  1  0.26310000  0.85430000  0.78160000  1
  H  H104  1  0.80565100  0.63779300  0.28736000  1
  H  H105  1  0.19434900  0.63779300  0.21264000  1
  H  H106  1  0.30565100  0.13779300  0.28736000  1
  H  H107  1  0.69434900  0.13779300  0.21264000  1
  H  H108  1  0.19434900  0.36220700  0.71264000  1
  H  H109  1  0.80565100  0.36220700  0.78736000  1
  H  H110  1  0.69434900  0.86220700  0.71264000  1
  H  H111  1  0.30565100  0.86220700  0.78736000  1
  C  C112  1  0.74210000  0.68080000  0.29900000  1
  C  C113  1  0.25790000  0.68080000  0.20100000  1
  C  C114  1  0.24210000  0.18080000  0.29900000  1
  C  C115  1  0.75790000  0.18080000  0.20100000  1
  C  C116  1  0.25790000  0.31920000  0.70100000  1
  C  C117  1  0.74210000  0.31920000  0.79900000  1
  C  C118  1  0.75790000  0.81920000  0.70100000  1
  C  C119  1  0.24210000  0.81920000  0.79900000  1
  H  H120  1  0.76927000  0.69638700  0.32036500  1
  H  H121  1  0.23073000  0.69638700  0.17963500  1
  H  H122  1  0.26927000  0.19638700  0.32036500  1
  H  H123  1  0.73073000  0.19638700  0.17963500  1
  H  H124  1  0.23073000  0.30361300  0.67963500  1
  H  H125  1  0.76927000  0.30361300  0.82036500  1
  H  H126  1  0.73073000  0.80361300  0.67963500  1
  H  H127  1  0.26927000  0.80361300  0.82036500  1
  C  C128  1  0.68070000  0.69400000  0.28560000  1
  C  C129  1  0.31930000  0.69400000  0.21440000  1
  C  C130  1  0.18070000  0.19400000  0.28560000  1
  C  C131  1  0.81930000  0.19400000  0.21440000  1
  C  C132  1  0.31930000  0.30600000  0.71440000  1
  C  C133  1  0.68070000  0.30600000  0.78560000  1
  C  C134  1  0.81930000  0.80600000  0.71440000  1
  C  C135  1  0.18070000  0.80600000  0.78560000  1
  C  C136  1  0.63960000  0.67240000  0.25470000  1
  C  C137  1  0.36040000  0.67240000  0.24530000  1
  C  C138  1  0.13960000  0.17240000  0.25470000  1
  C  C139  1  0.86040000  0.17240000  0.24530000  1
  C  C140  1  0.36040000  0.32760000  0.74530000  1
  C  C141  1  0.63960000  0.32760000  0.75470000  1
  C  C142  1  0.86040000  0.82760000  0.74530000  1
  C  C143  1  0.13960000  0.82760000  0.75470000  1
  H  H144  1  0.59931400  0.68212800  0.24408700  1
  H  H145  1  0.40068600  0.68212800  0.25591300  1
  H  H146  1  0.09931400  0.18212800  0.24408700  1
  H  H147  1  0.90068600  0.18212800  0.25591300  1
  H  H148  1  0.40068600  0.31787200  0.75591300  1
  H  H149  1  0.59931400  0.31787200  0.74408700  1
  H  H150  1  0.90068600  0.81787200  0.75591300  1
  H  H151  1  0.09931400  0.81787200  0.74408700  1
  C  C152  1  0.65810000  0.63760000  0.24050000  1
  C  C153  1  0.34190000  0.63760000  0.25950000  1
  C  C154  1  0.15810000  0.13760000  0.24050000  1
  C  C155  1  0.84190000  0.13760000  0.25950000  1
  C  C156  1  0.34190000  0.36240000  0.75950000  1
  C  C157  1  0.65810000  0.36240000  0.74050000  1
  C  C158  1  0.84190000  0.86240000  0.75950000  1
  C  C159  1  0.15810000  0.86240000  0.74050000  1
  C  C160  1  0.66910000  0.57300000  0.20980000  1
  C  C161  1  0.33090000  0.57300000  0.29020000  1
  C  C162  1  0.16910000  0.07300000  0.20980000  1
  C  C163  1  0.83090000  0.07300000  0.29020000  1
  C  C164  1  0.33090000  0.42700000  0.79020000  1
  C  C165  1  0.66910000  0.42700000  0.70980000  1
  C  C166  1  0.83090000  0.92700000  0.79020000  1
  C  C167  1  0.16910000  0.92700000  0.70980000  1
  C  C168  1  0.62750000  0.60510000  0.21240000  1
  C  C169  1  0.37250000  0.60510000  0.28760000  1
  C  C170  1  0.12750000  0.10510000  0.21240000  1
  C  C171  1  0.87250000  0.10510000  0.28760000  1
  C  C172  1  0.37250000  0.39490000  0.78760000  1
  C  C173  1  0.62750000  0.39490000  0.71240000  1
  C  C174  1  0.87250000  0.89490000  0.78760000  1
  C  C175  1  0.12750000  0.89490000  0.71240000  1
  C  C176  1  0.56540000  0.60080000  0.19120000  1
  C  C177  1  0.43460000  0.60080000  0.30880000  1
  C  C178  1  0.06540000  0.10080000  0.19120000  1
  C  C179  1  0.93460000  0.10080000  0.30880000  1
  C  C180  1  0.43460000  0.39920000  0.80880000  1
  C  C181  1  0.56540000  0.39920000  0.69120000  1
  C  C182  1  0.93460000  0.89920000  0.80880000  1
  C  C183  1  0.06540000  0.89920000  0.69120000  1
  H  H184  1  0.53547200  0.62108900  0.19320500  1
  H  H185  1  0.46452800  0.62108900  0.30679500  1
  H  H186  1  0.03547200  0.12108900  0.19320500  1
  H  H187  1  0.96452800  0.12108900  0.30679500  1
  H  H188  1  0.46452800  0.37891100  0.80679500  1
  H  H189  1  0.53547200  0.37891100  0.69320500  1
  H  H190  1  0.96452800  0.87891100  0.80679500  1
  H  H191  1  0.03547200  0.87891100  0.69320500  1
  C  C192  1  0.55030000  0.56700000  0.16790000  1
  C  C193  1  0.44970000  0.56700000  0.33210000  1
  C  C194  1  0.05030000  0.06700000  0.16790000  1
  C  C195  1  0.94970000  0.06700000  0.33210000  1
  C  C196  1  0.44970000  0.43300000  0.83210000  1
  C  C197  1  0.55030000  0.43300000  0.66790000  1
  C  C198  1  0.94970000  0.93300000  0.83210000  1
  C  C199  1  0.05030000  0.93300000  0.66790000  1
  C  C200  1  0.59170000  0.53470000  0.16420000  1
  C  C201  1  0.40830000  0.53470000  0.33580000  1
  C  C202  1  0.09170000  0.03470000  0.16420000  1
  C  C203  1  0.90830000  0.03470000  0.33580000  1
  C  C204  1  0.40830000  0.46530000  0.83580000  1
  C  C205  1  0.59170000  0.46530000  0.66420000  1
  C  C206  1  0.90830000  0.96530000  0.83580000  1
  C  C207  1  0.09170000  0.96530000  0.66420000  1
  H  H208  1  0.57878900  0.51147400  0.14712500  1
  H  H209  1  0.42121100  0.51147400  0.35287500  1
  H  H210  1  0.07878900  0.01147400  0.14712500  1
  H  H211  1  0.92121100  0.01147400  0.35287500  1
  H  H212  1  0.42121100  0.48852600  0.85287500  1
  H  H213  1  0.57878900  0.48852600  0.64712500  1
  H  H214  1  0.92121100  0.98852600  0.85287500  1
  H  H215  1  0.07878900  0.98852600  0.64712500  1
  C  C216  1  0.65370000  0.53890000  0.18740000  1
  C  C217  1  0.34630000  0.53890000  0.31260000  1
  C  C218  1  0.15370000  0.03890000  0.18740000  1
  C  C219  1  0.84630000  0.03890000  0.31260000  1
  C  C220  1  0.34630000  0.46110000  0.81260000  1
  C  C221  1  0.65370000  0.46110000  0.68740000  1
  C  C222  1  0.84630000  0.96110000  0.81260000  1
  C  C223  1  0.15370000  0.96110000  0.68740000  1
  H  H224  1  0.68322900  0.51832700  0.18695700  1
  H  H225  1  0.31677100  0.51832700  0.31304300  1
  H  H226  1  0.18322900  0.01832700  0.18695700  1
  H  H227  1  0.81677100  0.01832700  0.31304300  1
  H  H228  1  0.31677100  0.48167300  0.81304300  1
  H  H229  1  0.68322900  0.48167300  0.68695700  1
  H  H230  1  0.81677100  0.98167300  0.81304300  1
  H  H231  1  0.18322900  0.98167300  0.68695700  1
  C  C232  1  0.66080000  0.73380000  0.30270000  1
  C  C233  1  0.33920000  0.73380000  0.19730000  1
  C  C234  1  0.16080000  0.23380000  0.30270000  1
  C  C235  1  0.83920000  0.23380000  0.19730000  1
  C  C236  1  0.33920000  0.26620000  0.69730000  1
  C  C237  1  0.66080000  0.26620000  0.80270000  1
  C  C238  1  0.83920000  0.76620000  0.69730000  1
  C  C239  1  0.16080000  0.76620000  0.80270000  1
  C  C240  1  0.67690000  0.74440000  0.35290000  1
  C  C241  1  0.32310000  0.74440000  0.14710000  1
  C  C242  1  0.17690000  0.24440000  0.35290000  1
  C  C243  1  0.82310000  0.24440000  0.14710000  1
  C  C244  1  0.32310000  0.25560000  0.64710000  1
  C  C245  1  0.67690000  0.25560000  0.85290000  1
  C  C246  1  0.82310000  0.75560000  0.64710000  1
  C  C247  1  0.17690000  0.75560000  0.85290000  1
  H  H248  1  0.70188600  0.72793300  0.37479200  1
  H  H249  1  0.29811400  0.72793300  0.12520800  1
  H  H250  1  0.20188600  0.22793300  0.37479200  1
  H  H251  1  0.79811400  0.22793300  0.12520800  1
  H  H252  1  0.29811400  0.27206700  0.62520800  1
  H  H253  1  0.70188600  0.27206700  0.87479200  1
  H  H254  1  0.79811400  0.77206700  0.62520800  1
  H  H255  1  0.20188600  0.77206700  0.87479200  1
  C  C256  1  0.65520000  0.78040000  0.37080000  1
  C  C257  1  0.34480000  0.78040000  0.12920000  1
  C  C258  1  0.15520000  0.28040000  0.37080000  1
  C  C259  1  0.84480000  0.28040000  0.12920000  1
  C  C260  1  0.34480000  0.21960000  0.62920000  1
  C  C261  1  0.65520000  0.21960000  0.87080000  1
  C  C262  1  0.84480000  0.71960000  0.62920000  1
  C  C263  1  0.15520000  0.71960000  0.87080000  1
  C  C264  1  0.61890000  0.80380000  0.33910000  1
  C  C265  1  0.38110000  0.80380000  0.16090000  1
  C  C266  1  0.11890000  0.30380000  0.33910000  1
  C  C267  1  0.88110000  0.30380000  0.16090000  1
  C  C268  1  0.38110000  0.19620000  0.66090000  1
  C  C269  1  0.61890000  0.19620000  0.83910000  1
  C  C270  1  0.88110000  0.69620000  0.66090000  1
  C  C271  1  0.11890000  0.69620000  0.83910000  1
  C  C272  1  0.60030000  0.79140000  0.29010000  1
  C  C273  1  0.39970000  0.79140000  0.20990000  1
  C  C274  1  0.10030000  0.29140000  0.29010000  1
  C  C275  1  0.89970000  0.29140000  0.20990000  1
  C  C276  1  0.39970000  0.20860000  0.70990000  1
  C  C277  1  0.60030000  0.20860000  0.79010000  1
  C  C278  1  0.89970000  0.70860000  0.70990000  1
  C  C279  1  0.10030000  0.70860000  0.79010000  1
  H  H280  1  0.57261500  0.80653800  0.26863800  1
  H  H281  1  0.42738500  0.80653800  0.23136200  1
  H  H282  1  0.07261500  0.30653800  0.26863800  1
  H  H283  1  0.92738500  0.30653800  0.23136200  1
  H  H284  1  0.42738500  0.19346200  0.73136200  1
  H  H285  1  0.57261500  0.19346200  0.76863800  1
  H  H286  1  0.92738500  0.69346200  0.73136200  1
  H  H287  1  0.07261500  0.69346200  0.76863800  1
  C  C288  1  0.62190000  0.75770000  0.27350000  1
  C  C289  1  0.37810000  0.75770000  0.22650000  1
  C  C290  1  0.12190000  0.25770000  0.27350000  1
  C  C291  1  0.87810000  0.25770000  0.22650000  1
  C  C292  1  0.37810000  0.24230000  0.72650000  1
  C  C293  1  0.62190000  0.24230000  0.77350000  1
  C  C294  1  0.87810000  0.74230000  0.72650000  1
  C  C295  1  0.12190000  0.74230000  0.77350000  1
  H  H296  1  0.60972900  0.74978600  0.23939700  1
  H  H297  1  0.39027100  0.74978600  0.26060300  1
  H  H298  1  0.10972900  0.24978600  0.23939700  1
  H  H299  1  0.89027100  0.24978600  0.26060300  1
  H  H300  1  0.39027100  0.25021400  0.76060300  1
  H  H301  1  0.60972900  0.25021400  0.73939700  1
  H  H302  1  0.89027100  0.75021400  0.76060300  1
  H  H303  1  0.10972900  0.75021400  0.73939700  1
  C  C304  1  0.67420000  0.78780000  0.42630000  1
  C  C305  1  0.32580000  0.78780000  0.07370000  1
  C  C306  1  0.17420000  0.28780000  0.42630000  1
  C  C307  1  0.82580000  0.28780000  0.07370000  1
  C  C308  1  0.32580000  0.21220000  0.57370000  1
  C  C309  1  0.67420000  0.21220000  0.92630000  1
  C  C310  1  0.82580000  0.71220000  0.57370000  1
  C  C311  1  0.17420000  0.71220000  0.92630000  1
  H  H312  1  0.70094900  0.77096200  0.44624800  1
  H  H313  1  0.29905100  0.77096200  0.05375200  1
  H  H314  1  0.20094900  0.27096200  0.44624800  1
  H  H315  1  0.79905100  0.27096200  0.05375200  1
  H  H316  1  0.29905100  0.22903800  0.55375200  1
  H  H317  1  0.70094900  0.22903800  0.94624800  1
  H  H318  1  0.79905100  0.72903800  0.55375200  1
  H  H319  1  0.20094900  0.72903800  0.94624800  1
  C  C320  1  0.64670000  0.82470000  0.44740000  1
  C  C321  1  0.35330000  0.82470000  0.05260000  1
  C  C322  1  0.14670000  0.32470000  0.44740000  1
  C  C323  1  0.85330000  0.32470000  0.05260000  1
  C  C324  1  0.35330000  0.17530000  0.55260000  1
  C  C325  1  0.64670000  0.17530000  0.94740000  1
  C  C326  1  0.85330000  0.67530000  0.55260000  1
  C  C327  1  0.14670000  0.67530000  0.94740000  1
  H  H328  1  0.65363400  0.83222300  0.48245500  1
  H  H329  1  0.34636600  0.83222300  0.01754500  1
  H  H330  1  0.15363400  0.33222300  0.48245500  1
  H  H331  1  0.84636600  0.33222300  0.01754500  1
  H  H332  1  0.34636600  0.16777700  0.51754500  1
  H  H333  1  0.65363400  0.16777700  0.98245500  1
  H  H334  1  0.84636600  0.66777700  0.51754500  1
  H  H335  1  0.15363400  0.66777700  0.98245500  1
  C  C336  1  0.60720000  0.84900000  0.40930000  1
  C  C337  1  0.39280000  0.84900000  0.09070000  1
  C  C338  1  0.10720000  0.34900000  0.40930000  1
  C  C339  1  0.89280000  0.34900000  0.09070000  1
  C  C340  1  0.39280000  0.15100000  0.59070000  1
  C  C341  1  0.60720000  0.15100000  0.90930000  1
  C  C342  1  0.89280000  0.65100000  0.59070000  1
  C  C343  1  0.10720000  0.65100000  0.90930000  1
  C  C344  1  0.59220000  0.83940000  0.35740000  1
  C  C345  1  0.40780000  0.83940000  0.14260000  1
  C  C346  1  0.09220000  0.33940000  0.35740000  1
  C  C347  1  0.90780000  0.33940000  0.14260000  1
  C  C348  1  0.40780000  0.16060000  0.64260000  1
  C  C349  1  0.59220000  0.16060000  0.85740000  1
  C  C350  1  0.90780000  0.66060000  0.64260000  1
  C  C351  1  0.09220000  0.66060000  0.85740000  1
  H  H352  1  0.56608100  0.85540900  0.33570500  1
  H  H353  1  0.43391900  0.85540900  0.16429500  1
  H  H354  1  0.06608100  0.35540900  0.33570500  1
  H  H355  1  0.93391900  0.35540900  0.16429500  1
  H  H356  1  0.43391900  0.14459100  0.66429500  1
  H  H357  1  0.56608100  0.14459100  0.83570500  1
  H  H358  1  0.93391900  0.64459100  0.66429500  1
  H  H359  1  0.06608100  0.64459100  0.83570500  1
  C  C360  1  0.58510000  0.88420000  0.43740000  1
  C  C361  1  0.41490000  0.88420000  0.06260000  1
  C  C362  1  0.08510000  0.38420000  0.43740000  1
  C  C363  1  0.91490000  0.38420000  0.06260000  1
  C  C364  1  0.41490000  0.11580000  0.56260000  1
  C  C365  1  0.58510000  0.11580000  0.93740000  1
  C  C366  1  0.91490000  0.61580000  0.56260000  1
  C  C367  1  0.08510000  0.61580000  0.93740000  1
  C  C368  1  0.48350000  0.56400000  0.14550000  1
  C  C369  1  0.51650000  0.56400000  0.35450000  1
  C  C370  1  0.98350000  0.06400000  0.14550000  1
  C  C371  1  0.01650000  0.06400000  0.35450000  1
  C  C372  1  0.51650000  0.43600000  0.85450000  1
  C  C373  1  0.48350000  0.43600000  0.64550000  1
  C  C374  1  0.01650000  0.93600000  0.85450000  1
  C  C375  1  0.98350000  0.93600000  0.64550000  1
  C  C376  1  0.43540000  0.58780000  0.16140000  1
  C  C377  1  0.56460000  0.58780000  0.33860000  1
  C  C378  1  0.93540000  0.08780000  0.16140000  1
  C  C379  1  0.06460000  0.08780000  0.33860000  1
  C  C380  1  0.56460000  0.41220000  0.83860000  1
  C  C381  1  0.43540000  0.41220000  0.66140000  1
  C  C382  1  0.06460000  0.91220000  0.83860000  1
  C  C383  1  0.93540000  0.91220000  0.66140000  1
  H  H384  1  0.44397600  0.60786000  0.18575500  1
  H  H385  1  0.55602400  0.60786000  0.31424500  1
  H  H386  1  0.94397600  0.10786000  0.18575500  1
  H  H387  1  0.05602400  0.10786000  0.31424500  1
  H  H388  1  0.55602400  0.39214000  0.81424500  1
  H  H389  1  0.44397600  0.39214000  0.68575500  1
  H  H390  1  0.05602400  0.89214000  0.81424500  1
  H  H391  1  0.94397600  0.89214000  0.68575500  1
  C  C392  1  0.37540000  0.58180000  0.14170000  1
  C  C393  1  0.62460000  0.58180000  0.35830000  1
  C  C394  1  0.87540000  0.08180000  0.14170000  1
  C  C395  1  0.12460000  0.08180000  0.35830000  1
  C  C396  1  0.62460000  0.41820000  0.85830000  1
  C  C397  1  0.37540000  0.41820000  0.64170000  1
  C  C398  1  0.12460000  0.91820000  0.85830000  1
  C  C399  1  0.87540000  0.91820000  0.64170000  1
  H  H400  1  0.34348200  0.59654900  0.15719200  1
  H  H401  1  0.65651800  0.59654900  0.34280800  1
  H  H402  1  0.84348200  0.09654900  0.15719200  1
  H  H403  1  0.15651800  0.09654900  0.34280800  1
  H  H404  1  0.65651800  0.40345100  0.84280800  1
  H  H405  1  0.34348200  0.40345100  0.65719200  1
  H  H406  1  0.15651800  0.90345100  0.84280800  1
  H  H407  1  0.84348200  0.90345100  0.65719200  1
  C  C408  1  0.35580000  0.55840000  0.10400000  1
  C  C409  1  0.64420000  0.55840000  0.39600000  1
  C  C410  1  0.85580000  0.05840000  0.10400000  1
  C  C411  1  0.14420000  0.05840000  0.39600000  1
  C  C412  1  0.64420000  0.44160000  0.89600000  1
  C  C413  1  0.35580000  0.44160000  0.60400000  1
  C  C414  1  0.14420000  0.94160000  0.89600000  1
  C  C415  1  0.85580000  0.94160000  0.60400000  1
  C  C416  1  0.40940000  0.53480000  0.08300000  1
  C  C417  1  0.59060000  0.53480000  0.41700000  1
  C  C418  1  0.90940000  0.03480000  0.08300000  1
  C  C419  1  0.09060000  0.03480000  0.41700000  1
  C  C420  1  0.59060000  0.46520000  0.91700000  1
  C  C421  1  0.40940000  0.46520000  0.58300000  1
  C  C422  1  0.09060000  0.96520000  0.91700000  1
  C  C423  1  0.90940000  0.96520000  0.58300000  1
  C  C424  1  0.47430000  0.53770000  0.10200000  1
  C  C425  1  0.52570000  0.53770000  0.39800000  1
  C  C426  1  0.97430000  0.03770000  0.10200000  1
  C  C427  1  0.02570000  0.03770000  0.39800000  1
  C  C428  1  0.52570000  0.46230000  0.89800000  1
  C  C429  1  0.47430000  0.46230000  0.60200000  1
  C  C430  1  0.02570000  0.96230000  0.89800000  1
  C  C431  1  0.97430000  0.96230000  0.60200000  1
  H  H432  1  0.50770600  0.52377200  0.08742100  1
  H  H433  1  0.49229400  0.52377200  0.41257900  1
  H  H434  1  0.00770600  0.02377200  0.08742100  1
  H  H435  1  0.99229400  0.02377200  0.41257900  1
  H  H436  1  0.49229400  0.47622800  0.91257900  1
  H  H437  1  0.50770600  0.47622800  0.58742100  1
  H  H438  1  0.99229400  0.97622800  0.91257900  1
  H  H439  1  0.00770600  0.97622800  0.58742100  1
  C  C440  1  0.29540000  0.55650000  0.08470000  1
  C  C441  1  0.70460000  0.55650000  0.41530000  1
  C  C442  1  0.79540000  0.05650000  0.08470000  1
  C  C443  1  0.20460000  0.05650000  0.41530000  1
  C  C444  1  0.70460000  0.44350000  0.91530000  1
  C  C445  1  0.29540000  0.44350000  0.58470000  1
  C  C446  1  0.20460000  0.94350000  0.91530000  1
  C  C447  1  0.79540000  0.94350000  0.58470000  1
  H  H448  1  0.26353700  0.57263900  0.09774300  1
  H  H449  1  0.73646300  0.57263900  0.40225700  1
  H  H450  1  0.76353700  0.07263900  0.09774300  1
  H  H451  1  0.23646300  0.07263900  0.40225700  1
  H  H452  1  0.73646300  0.42736100  0.90225700  1
  H  H453  1  0.26353700  0.42736100  0.59774300  1
  H  H454  1  0.23646300  0.92736100  0.90225700  1
  H  H455  1  0.76353700  0.92736100  0.59774300  1
  C  C456  1  0.28130000  0.52940000  0.04400000  1
  C  C457  1  0.71870000  0.52940000  0.45600000  1
  C  C458  1  0.78130000  0.02940000  0.04400000  1
  C  C459  1  0.21870000  0.02940000  0.45600000  1
  C  C460  1  0.71870000  0.47060000  0.95600000  1
  C  C461  1  0.28130000  0.47060000  0.54400000  1
  C  C462  1  0.21870000  0.97060000  0.95600000  1
  C  C463  1  0.78130000  0.97060000  0.54400000  1
  C  C464  1  0.33360000  0.50330000  0.02210000  1
  C  C465  1  0.66640000  0.50330000  0.47790000  1
  C  C466  1  0.83360000  0.00330000  0.02210000  1
  C  C467  1  0.16640000  0.00330000  0.47790000  1
  C  C468  1  0.66640000  0.49670000  0.97790000  1
  C  C469  1  0.33360000  0.49670000  0.52210000  1
  C  C470  1  0.16640000  0.99670000  0.97790000  1
  C  C471  1  0.83360000  0.99670000  0.52210000  1
  H  H472  1  0.32328600  0.48441400  0.99647100  1
  H  H473  1  0.67671400  0.48441400  0.50352900  1
  H  H474  1  0.82328600  0.98441400  0.99647100  1
  H  H475  1  0.17671400  0.98441400  0.50352900  1
  H  H476  1  0.67671400  0.51558600  0.00352900  1
  H  H477  1  0.32328600  0.51558600  0.49647100  1
  H  H478  1  0.17671400  0.01558600  0.00352900  1
  H  H479  1  0.82328600  0.01558600  0.49647100  1
  C  C480  1  0.39700000  0.50810000  0.04080000  1
  C  C481  1  0.60300000  0.50810000  0.45920000  1
  C  C482  1  0.89700000  0.00810000  0.04080000  1
  C  C483  1  0.10300000  0.00810000  0.45920000  1
  C  C484  1  0.60300000  0.49190000  0.95920000  1
  C  C485  1  0.39700000  0.49190000  0.54080000  1
  C  C486  1  0.10300000  0.99190000  0.95920000  1
  C  C487  1  0.89700000  0.99190000  0.54080000  1
  H  H488  1  0.43030500  0.49413200  0.02606200  1
  H  H489  1  0.56969500  0.49413200  0.47393800  1
  H  H490  1  0.93030500  0.99413200  0.02606200  1
  H  H491  1  0.06969500  0.99413200  0.47393800  1
  H  H492  1  0.56969500  0.50586800  0.97393800  1
  H  H493  1  0.43030500  0.50586800  0.52606200  1
  H  H494  1  0.06969500  0.00586800  0.97393800  1
  H  H495  1  0.93030500  0.00586800  0.52606200  1
  C  C496  1  0.21360000  0.52550000  0.02230000  1
  C  C497  1  0.78640000  0.52550000  0.47770000  1
  C  C498  1  0.71360000  0.02550000  0.02230000  1
  C  C499  1  0.28640000  0.02550000  0.47770000  1
  C  C500  1  0.78640000  0.47450000  0.97770000  1
  C  C501  1  0.21360000  0.47450000  0.52230000  1
  C  C502  1  0.28640000  0.97450000  0.97770000  1
  C  C503  1  0.71360000  0.97450000  0.52230000  1
  N  N504  1  0.72640000  0.58430000  0.23480000  1
  N  N505  1  0.27360000  0.58430000  0.26520000  1
  N  N506  1  0.22640000  0.08430000  0.23480000  1
  N  N507  1  0.77360000  0.08430000  0.26520000  1
  N  N508  1  0.27360000  0.41570000  0.76520000  1
  N  N509  1  0.72640000  0.41570000  0.73480000  1
  N  N510  1  0.77360000  0.91570000  0.76520000  1
  N  N511  1  0.22640000  0.91570000  0.73480000  1
  O  O512  1  0.92480000  0.48300000  0.14890000  1
  O  O513  1  0.07520000  0.48300000  0.35110000  1
  O  O514  1  0.42480000  0.98300000  0.14890000  1
  O  O515  1  0.57520000  0.98300000  0.35110000  1
  O  O516  1  0.07520000  0.51700000  0.85110000  1
  O  O517  1  0.92480000  0.51700000  0.64890000  1
  O  O518  1  0.57520000  0.01700000  0.85110000  1
  O  O519  1  0.42480000  0.01700000  0.64890000  1
  O  O520  1  0.85730000  0.52250000  0.10430000  1
  O  O521  1  0.14270000  0.52250000  0.39570000  1
  O  O522  1  0.35730000  0.02250000  0.10430000  1
  O  O523  1  0.64270000  0.02250000  0.39570000  1
  O  O524  1  0.14270000  0.47750000  0.89570000  1
  O  O525  1  0.85730000  0.47750000  0.60430000  1
  O  O526  1  0.64270000  0.97750000  0.89570000  1
  O  O527  1  0.35730000  0.97750000  0.60430000  1
  O  O528  1  0.93940000  0.49860000  0.34060000  1
  O  O529  1  0.06060000  0.49860000  0.15940000  1
  O  O530  1  0.43940000  0.99860000  0.34060000  1
  O  O531  1  0.56060000  0.99860000  0.15940000  1
  O  O532  1  0.06060000  0.50140000  0.65940000  1
  O  O533  1  0.93940000  0.50140000  0.84060000  1
  O  O534  1  0.56060000  0.00140000  0.65940000  1
  O  O535  1  0.43940000  0.00140000  0.84060000  1
  O  O536  1  0.89710000  0.55370000  0.37190000  1
  O  O537  1  0.10290000  0.55370000  0.12810000  1
  O  O538  1  0.39710000  0.05370000  0.37190000  1
  O  O539  1  0.60290000  0.05370000  0.12810000  1
  O  O540  1  0.10290000  0.44630000  0.62810000  1
  O  O541  1  0.89710000  0.44630000  0.87190000  1
  O  O542  1  0.60290000  0.94630000  0.62810000  1
  O  O543  1  0.39710000  0.94630000  0.87190000  1
  O  O544  1  0.59500000  0.89140000  0.48410000  1
  O  O545  1  0.40500000  0.89140000  0.01590000  1
  O  O546  1  0.09500000  0.39140000  0.48410000  1
  O  O547  1  0.90500000  0.39140000  0.01590000  1
  O  O548  1  0.40500000  0.10860000  0.51590000  1
  O  O549  1  0.59500000  0.10860000  0.98410000  1
  O  O550  1  0.90500000  0.60860000  0.51590000  1
  O  O551  1  0.09500000  0.60860000  0.98410000  1
  O  O552  1  0.55080000  0.90660000  0.40200000  1
  O  O553  1  0.44920000  0.90660000  0.09800000  1
  O  O554  1  0.05080000  0.40660000  0.40200000  1
  O  O555  1  0.94920000  0.40660000  0.09800000  1
  O  O556  1  0.44920000  0.09340000  0.59800000  1
  O  O557  1  0.55080000  0.09340000  0.90200000  1
  O  O558  1  0.94920000  0.59340000  0.59800000  1
  O  O559  1  0.05080000  0.59340000  0.90200000  1
  O  O560  1  0.17870000  0.55160000  0.03740000  1
  O  O561  1  0.82130000  0.55160000  0.46260000  1
  O  O562  1  0.67870000  0.05160000  0.03740000  1
  O  O563  1  0.32130000  0.05160000  0.46260000  1
  O  O564  1  0.82130000  0.44840000  0.96260000  1
  O  O565  1  0.17870000  0.44840000  0.53740000  1
  O  O566  1  0.32130000  0.94840000  0.96260000  1
  O  O567  1  0.67870000  0.94840000  0.53740000  1
  O  O568  1  0.20210000  0.49200000  0.99870000  1
  O  O569  1  0.79790000  0.49200000  0.50130000  1
  O  O570  1  0.70210000  0.99200000  0.99870000  1
  O  O571  1  0.29790000  0.99200000  0.50130000  1
  O  O572  1  0.79790000  0.50800000  0.00130000  1
  O  O573  1  0.20210000  0.50800000  0.49870000  1
  O  O574  1  0.29790000  0.00800000  0.00130000  1
  O  O575  1  0.70210000  0.00800000  0.49870000  1
  O  O576  1  0.98370000  0.46890000  0.57400000  1
  O  O577  1  0.01630000  0.46890000  0.92600000  1
  O  O578  1  0.48370000  0.96890000  0.57400000  1
  O  O579  1  0.51630000  0.96890000  0.92600000  1
  O  O580  1  0.01630000  0.53110000  0.42600000  1
  O  O581  1  0.98370000  0.53110000  0.07400000  1
  O  O582  1  0.51630000  0.03110000  0.42600000  1
  O  O583  1  0.48370000  0.03110000  0.07400000  1
  O  O584  1  0.02180000  0.56410000  0.51370000  1
  O  O585  1  0.97820000  0.56410000  0.98630000  1
  O  O586  1  0.52180000  0.06410000  0.51370000  1
  O  O587  1  0.47820000  0.06410000  0.98630000  1
  O  O588  1  0.97820000  0.43590000  0.48630000  1
  O  O589  1  0.02180000  0.43590000  0.01370000  1
  O  O590  1  0.47820000  0.93590000  0.48630000  1
  O  O591  1  0.52180000  0.93590000  0.01370000  1
  O  O592  1  0.08410000  0.50800000  0.55160000  1
  O  O593  1  0.91590000  0.50800000  0.94840000  1
  O  O594  1  0.58410000  0.00800000  0.55160000  1
  O  O595  1  0.41590000  0.00800000  0.94840000  1
  O  O596  1  0.91590000  0.49200000  0.44840000  1
  O  O597  1  0.08410000  0.49200000  0.05160000  1
  O  O598  1  0.41590000  0.99200000  0.44840000  1
  O  O599  1  0.58410000  0.99200000  0.05160000  1
  O  O600  1  0.07670000  0.47300000  0.46540000  1
  O  O601  1  0.92330000  0.47300000  0.03460000  1
  O  O602  1  0.57670000  0.97300000  0.46540000  1
  O  O603  1  0.42330000  0.97300000  0.03460000  1
  O  O604  1  0.92330000  0.52700000  0.53460000  1
  O  O605  1  0.07670000  0.52700000  0.96540000  1
  O  O606  1  0.42330000  0.02700000  0.53460000  1
  O  O607  1  0.57670000  0.02700000  0.96540000  1
  O  O608  1  0.90910000  0.42160000  0.38540000  1
  O  O609  1  0.09090000  0.42160000  0.11460000  1
  O  O610  1  0.40910000  0.92160000  0.38540000  1
  O  O611  1  0.59090000  0.92160000  0.11460000  1
  O  O612  1  0.09090000  0.57840000  0.61460000  1
  O  O613  1  0.90910000  0.57840000  0.88540000  1
  O  O614  1  0.59090000  0.07840000  0.61460000  1
  O  O615  1  0.40910000  0.07840000  0.88540000  1
  O  O616  1  0.10310000  0.60020000  0.43270000  1
  O  O617  1  0.89690000  0.60020000  0.06730000  1
  O  O618  1  0.60310000  0.10020000  0.43270000  1
  O  O619  1  0.39690000  0.10020000  0.06730000  1
  O  O620  1  0.89690000  0.39980000  0.56730000  1
  O  O621  1  0.10310000  0.39980000  0.93270000  1
  O  O622  1  0.39690000  0.89980000  0.56730000  1
  O  O623  1  0.60310000  0.89980000  0.93270000  1
  O  O624  1  0.15390000  0.58210000  0.53990000  1
  O  O625  1  0.84610000  0.58210000  0.96010000  1
  O  O626  1  0.65390000  0.08210000  0.53990000  1
  O  O627  1  0.34610000  0.08210000  0.96010000  1
  O  O628  1  0.84610000  0.41790000  0.46010000  1
  O  O629  1  0.15390000  0.41790000  0.03990000  1
  O  O630  1  0.34610000  0.91790000  0.46010000  1
  O  O631  1  0.65390000  0.91790000  0.03990000  1
  O  O632  1  0.02150000  0.38620000  0.57930000  1
  O  O633  1  0.97850000  0.38620000  0.92070000  1
  O  O634  1  0.52150000  0.88620000  0.57930000  1
  O  O635  1  0.47850000  0.88620000  0.92070000  1
  O  O636  1  0.97850000  0.61380000  0.42070000  1
  O  O637  1  0.02150000  0.61380000  0.07930000  1
  O  O638  1  0.47850000  0.11380000  0.42070000  1
  O  O639  1  0.52150000  0.11380000  0.07930000  1
  O  O640  1  0.98900000  0.42490000  0.31480000  1
  O  O641  1  0.01100000  0.42490000  0.18520000  1
  O  O642  1  0.48900000  0.92490000  0.31480000  1
  O  O643  1  0.51100000  0.92490000  0.18520000  1
  O  O644  1  0.01100000  0.57510000  0.68520000  1
  O  O645  1  0.98900000  0.57510000  0.81480000  1
  O  O646  1  0.51100000  0.07510000  0.68520000  1
  O  O647  1  0.48900000  0.07510000  0.81480000  1
  O  O648  1  0.14000000  0.38110000  0.58040000  1
  O  O649  1  0.86000000  0.38110000  0.91960000  1
  O  O650  1  0.64000000  0.88110000  0.58040000  1
  O  O651  1  0.36000000  0.88110000  0.91960000  1
  O  O652  1  0.86000000  0.61890000  0.41960000  1
  O  O653  1  0.14000000  0.61890000  0.08040000  1
  O  O654  1  0.36000000  0.11890000  0.41960000  1
  O  O655  1  0.64000000  0.11890000  0.08040000  1
  O  O656  1  0.20700000  0.58700000  0.44000000  1
  O  O657  1  0.79300000  0.58700000  0.06000000  1
  O  O658  1  0.70700000  0.08700000  0.44000000  1
  O  O659  1  0.29300000  0.08700000  0.06000000  1
  O  O660  1  0.79300000  0.41300000  0.56000000  1
  O  O661  1  0.20700000  0.41300000  0.94000000  1
  O  O662  1  0.29300000  0.91300000  0.56000000  1
  O  O663  1  0.70700000  0.91300000  0.94000000  1
  Eu  Eu664  1  0.99575000  0.46411000  0.40354000  1
  Eu  Eu665  1  0.00425000  0.46411000  0.09646000  1
  Eu  Eu666  1  0.49575000  0.96411000  0.40354000  1
  Eu  Eu667  1  0.50425000  0.96411000  0.09646000  1
  Eu  Eu668  1  0.00425000  0.53589000  0.59646000  1
  Eu  Eu669  1  0.99575000  0.53589000  0.90354000  1
  Eu  Eu670  1  0.50425000  0.03589000  0.59646000  1
  Eu  Eu671  1  0.49575000  0.03589000  0.90354000  1
  Eu  Eu672  1  0.10966000  0.53767000  0.47597000  1
  Eu  Eu673  1  0.89034000  0.53767000  0.02403000  1
  Eu  Eu674  1  0.60966000  0.03767000  0.47597000  1
  Eu  Eu675  1  0.39034000  0.03767000  0.02403000  1
  Eu  Eu676  1  0.89034000  0.46233000  0.52403000  1
  Eu  Eu677  1  0.10966000  0.46233000  0.97597000  1
  Eu  Eu678  1  0.39034000  0.96233000  0.52403000  1
  Eu  Eu679  1  0.60966000  0.96233000  0.97597000  1
  Eu  Eu680  1  0.07101000  0.43987000  0.54109000  1
  Eu  Eu681  1  0.92899000  0.43987000  0.95891000  1
  Eu  Eu682  1  0.57101000  0.93987000  0.54109000  1
  Eu  Eu683  1  0.42899000  0.93987000  0.95891000  1
  Eu  Eu684  1  0.92899000  0.56013000  0.45891000  1
  Eu  Eu685  1  0.07101000  0.56013000  0.04109000  1
  Eu  Eu686  1  0.42899000  0.06013000  0.45891000  1
  Eu  Eu687  1  0.57101000  0.06013000  0.04109000  1
  H  H688  1  0.90843500  0.41392400  0.34840200  1
  H  H689  1  0.09156500  0.41392400  0.15159800  1
  H  H690  1  0.40843500  0.91392400  0.34840200  1
  H  H691  1  0.59156500  0.91392400  0.15159800  1
  H  H692  1  0.09156500  0.58607600  0.65159800  1
  H  H693  1  0.90843500  0.58607600  0.84840200  1
  H  H694  1  0.59156500  0.08607600  0.65159800  1
  H  H695  1  0.40843500  0.08607600  0.84840200  1
  H  H696  1  0.91365800  0.39819100  0.40746300  1
  H  H697  1  0.08634200  0.39819100  0.09253700  1
  H  H698  1  0.41365800  0.89819100  0.40746300  1
  H  H699  1  0.58634200  0.89819100  0.09253700  1
  H  H700  1  0.08634200  0.60180900  0.59253700  1
  H  H701  1  0.91365800  0.60180900  0.90746300  1
  H  H702  1  0.58634200  0.10180900  0.59253700  1
  H  H703  1  0.41365800  0.10180900  0.90746300  1
  H  H704  1  0.10707000  0.62116500  0.45885600  1
  H  H705  1  0.89293000  0.62116500  0.04114400  1
  H  H706  1  0.60707000  0.12116500  0.45885600  1
  H  H707  1  0.39293000  0.12116500  0.04114400  1
  H  H708  1  0.89293000  0.37883500  0.54114400  1
  H  H709  1  0.10707000  0.37883500  0.95885600  1
  H  H710  1  0.39293000  0.87883500  0.54114400  1
  H  H711  1  0.60707000  0.87883500  0.95885600  1
  H  H712  1  0.13765000  0.60245800  0.40823500  1
  H  H713  1  0.86235000  0.60245800  0.09176500  1
  H  H714  1  0.63765000  0.10245800  0.40823500  1
  H  H715  1  0.36235000  0.10245800  0.09176500  1
  H  H716  1  0.86235000  0.39754200  0.59176500  1
  H  H717  1  0.13765000  0.39754200  0.90823500  1
  H  H718  1  0.36235000  0.89754200  0.59176500  1
  H  H719  1  0.63765000  0.89754200  0.90823500  1
  H  H720  1  0.14068000  0.57436400  0.57476500  1
  H  H721  1  0.85932000  0.57436400  0.92523500  1
  H  H722  1  0.64068000  0.07436400  0.57476500  1
  H  H723  1  0.35932000  0.07436400  0.92523500  1
  H  H724  1  0.85932000  0.42563600  0.42523500  1
  H  H725  1  0.14068000  0.42563600  0.07476500  1
  H  H726  1  0.35932000  0.92563600  0.42523500  1
  H  H727  1  0.64068000  0.92563600  0.07476500  1
  H  H728  1  0.20055000  0.58150200  0.53916400  1
  H  H729  1  0.79945000  0.58150200  0.96083600  1
  H  H730  1  0.70055000  0.08150200  0.53916400  1
  H  H731  1  0.29945000  0.08150200  0.96083600  1
  H  H732  1  0.79945000  0.41849800  0.46083600  1
  H  H733  1  0.20055000  0.41849800  0.03916400  1
  H  H734  1  0.29945000  0.91849800  0.46083600  1
  H  H735  1  0.70055000  0.91849800  0.03916400  1
  H  H736  1  0.97875700  0.38268400  0.56299800  1
  H  H737  1  0.02124300  0.38268400  0.93700200  1
  H  H738  1  0.47875700  0.88268400  0.56299800  1
  H  H739  1  0.52124300  0.88268400  0.93700200  1
  H  H740  1  0.02124300  0.61731600  0.43700200  1
  H  H741  1  0.97875700  0.61731600  0.06299800  1
  H  H742  1  0.52124300  0.11731600  0.43700200  1
  H  H743  1  0.47875700  0.11731600  0.06299800  1
  H  H744  1  0.04689000  0.36254800  0.57396700  1
  H  H745  1  0.95311000  0.36254800  0.92603300  1
  H  H746  1  0.54689000  0.86254800  0.57396700  1
  H  H747  1  0.45311000  0.86254800  0.92603300  1
  H  H748  1  0.95311000  0.63745200  0.42603300  1
  H  H749  1  0.04689000  0.63745200  0.07396700  1
  H  H750  1  0.45311000  0.13745200  0.42603300  1
  H  H751  1  0.54689000  0.13745200  0.07396700  1
  H  H752  1  0.00865000  0.44030000  0.28740100  1
  H  H753  1  0.99135000  0.44030000  0.21259900  1
  H  H754  1  0.50865000  0.94030000  0.28740100  1
  H  H755  1  0.49135000  0.94030000  0.21259900  1
  H  H756  1  0.99135000  0.55970000  0.71259900  1
  H  H757  1  0.00865000  0.55970000  0.78740100  1
  H  H758  1  0.49135000  0.05970000  0.71259900  1
  H  H759  1  0.50865000  0.05970000  0.78740100  1
  H  H760  1  0.01165000  0.39993600  0.31929700  1
  H  H761  1  0.98835000  0.39993600  0.18070300  1
  H  H762  1  0.51165000  0.89993600  0.31929700  1
  H  H763  1  0.48835000  0.89993600  0.18070300  1
  H  H764  1  0.98835000  0.60006400  0.68070300  1
  H  H765  1  0.01165000  0.60006400  0.81929700  1
  H  H766  1  0.48835000  0.10006400  0.68070300  1
  H  H767  1  0.51165000  0.10006400  0.81929700  1
  H  H768  1  0.11288000  0.35792100  0.58360300  1
  H  H769  1  0.88712000  0.35792100  0.91639700  1
  H  H770  1  0.61288000  0.85792100  0.58360300  1
  H  H771  1  0.38712000  0.85792100  0.91639700  1
  H  H772  1  0.88712000  0.64207900  0.41639700  1
  H  H773  1  0.11288000  0.64207900  0.08360300  1
  H  H774  1  0.38712000  0.14207900  0.41639700  1
  H  H775  1  0.61288000  0.14207900  0.08360300  1
  H  H776  1  0.17465000  0.37520100  0.55709000  1
  H  H777  1  0.82535000  0.37520100  0.94291000  1
  H  H778  1  0.67465000  0.87520100  0.55709000  1
  H  H779  1  0.32535000  0.87520100  0.94291000  1
  H  H780  1  0.82535000  0.62479900  0.44291000  1
  H  H781  1  0.17465000  0.62479900  0.05709000  1
  H  H782  1  0.32535000  0.12479900  0.44291000  1
  H  H783  1  0.67465000  0.12479900  0.05709000  1
  H  H784  1  0.22516000  0.60240900  0.46937900  1
  H  H785  1  0.77484000  0.60240900  0.03062100  1
  H  H786  1  0.72516000  0.10240900  0.46937900  1
  H  H787  1  0.27484000  0.10240900  0.03062100  1
  H  H788  1  0.77484000  0.39759100  0.53062100  1
  H  H789  1  0.22516000  0.39759100  0.96937900  1
  H  H790  1  0.27484000  0.89759100  0.53062100  1
  H  H791  1  0.72516000  0.89759100  0.96937900  1
  H  H792  1  0.24053000  0.57097500  0.42516200  1
  H  H793  1  0.75947000  0.57097500  0.07483800  1
  H  H794  1  0.74053000  0.07097500  0.42516200  1
  H  H795  1  0.25947000  0.07097500  0.07483800  1
  H  H796  1  0.75947000  0.42902500  0.57483800  1
  H  H797  1  0.24053000  0.42902500  0.92516200  1
  H  H798  1  0.25947000  0.92902500  0.57483800  1
  H  H799  1  0.74053000  0.92902500  0.92516200  1
